                                  MODFLOW-2000
      U.S. GEOLOGICAL SURVEY MODULAR FINITE-DIFFERENCE GROUND-WATER FLOW MODEL
                           VERSION 1.19.01 03/25/2010


 This model run combines GLOBAL and LIST output into this single file.

 GLOBAL LISTING FILE: UMONS_SmallModel_Transient_Sim1.list
                         UNIT    2

 OPENING UMONS_SmallModel_Transient_Sim1.dis
 FILE TYPE:DIS   UNIT    9   STATUS:OLD    
 FORMAT:FORMATTED              ACCESS:SEQUENTIAL          

 OPENING UMONS_SmallModel_Transient_Sim1.chob
 FILE TYPE:CHOB   UNIT    8   STATUS:OLD    
 FORMAT:FORMATTED              ACCESS:SEQUENTIAL          

 OPENING UMONS_SmallModel_Transient_Sim1.obc
 FILE TYPE:DATA   UNIT  140   STATUS:UNKNOWN
 FORMAT:FORMATTED              ACCESS:SEQUENTIAL          

 OPENING UMONS_SmallModel_Transient_Sim1.ba6
 FILE TYPE:BAS6   UNIT   10   STATUS:OLD    
 FORMAT:FORMATTED              ACCESS:SEQUENTIAL          

 OPENING UMONS_SmallModel_Transient_Sim1.lpf
 FILE TYPE:LPF   UNIT   11   STATUS:OLD    
 FORMAT:FORMATTED              ACCESS:SEQUENTIAL          

 OPENING UMONS_SmallModel_Transient_Sim1.oc
 FILE TYPE:OC   UNIT   12   STATUS:OLD    
 FORMAT:FORMATTED              ACCESS:SEQUENTIAL          

 OPENING UMONS_SmallModel_Transient_Sim1.rch
 FILE TYPE:RCH   UNIT   13   STATUS:OLD    
 FORMAT:FORMATTED              ACCESS:SEQUENTIAL          

 OPENING UMONS_SmallModel_Transient_Sim1.wel
 FILE TYPE:WEL   UNIT   16   STATUS:OLD    
 FORMAT:FORMATTED              ACCESS:SEQUENTIAL          

 OPENING UMONS_SmallModel_Transient_Sim1.chd
 FILE TYPE:CHD   UNIT   14   STATUS:OLD    
 FORMAT:FORMATTED              ACCESS:SEQUENTIAL          

 OPENING UMONS_SmallModel_Transient_Sim1.pcg
 FILE TYPE:PCG   UNIT   15   STATUS:OLD    
 FORMAT:FORMATTED              ACCESS:SEQUENTIAL          

 OPENING UMONS_SmallModel_Transient_Sim1.cbc
 FILE TYPE:DATA(BINARY)   UNIT   40   STATUS:REPLACE
 FORMAT:UNFORMATTED            ACCESS:STREAM              

 OPENING UMONS_SmallModel_Transient_Sim1.hds
 FILE TYPE:DATA(BINARY)   UNIT    3   STATUS:REPLACE
 FORMAT:UNFORMATTED            ACCESS:STREAM              

 THE FREE FORMAT OPTION HAS BEEN SELECTED

 DISCRETIZATION INPUT DATA READ FROM UNIT    9
 # DIS package for  MODFLOW-2005, generated by Flopy.
    1 LAYERS       221 ROWS       227 COLUMNS
   52 STRESS PERIOD(S) IN SIMULATION
 MODEL TIME UNIT IS SECONDS
 MODEL LENGTH UNIT IS METERS
 THE GROUND-WATER TRANSPORT PROCESS IS INACTIVE

 THE OBSERVATION PROCESS IS INACTIVE
 THE SENSITIVITY PROCESS IS INACTIVE
 THE PARAMETER-ESTIMATION PROCESS IS INACTIVE

 MODE: FORWARD

  Confining bed flag for each layer:
   0

     451951  ELEMENTS OF GX ARRAY USED OUT OF     451951
      50167  ELEMENTS OF GZ ARRAY USED OUT OF      50167
      50167  ELEMENTS OF IG ARRAY USED OUT OF      50167



                               DELR
 READING ON UNIT    9 WITH FORMAT: (FREE)              



                               DELC
 READING ON UNIT    9 WITH FORMAT: (FREE)              



           TOP ELEVATION OF LAYER 1
 READING ON UNIT    9 WITH FORMAT: (FREE)              



             MODEL LAYER BOTTOM EL. FOR LAYER   1
 READING ON UNIT    9 WITH FORMAT: (FREE)              


 STRESS PERIOD     LENGTH       TIME STEPS     MULTIPLIER FOR DELT    SS FLAG
 ----------------------------------------------------------------------------
        1         604800.0         10                    1.000         SS
        2         604800.0         10                    1.000         TR
        3         604800.0         10                    1.000         TR
        4         604800.0         10                    1.000         TR
        5         604800.0         10                    1.000         TR
        6         604800.0         10                    1.000         TR
        7         604800.0         10                    1.000         TR
        8         604800.0         10                    1.000         TR
        9         604800.0         10                    1.000         TR
       10         604800.0         10                    1.000         TR
       11         604800.0         10                    1.000         TR
       12         604800.0         10                    1.000         TR
       13         604800.0         10                    1.000         TR
       14         604800.0         10                    1.000         TR
       15         604800.0         10                    1.000         TR
       16         604800.0         10                    1.000         TR
       17         604800.0         10                    1.000         TR
       18         604800.0         10                    1.000         TR
       19         604800.0         10                    1.000         TR
       20         604800.0         10                    1.000         TR
       21         604800.0         10                    1.000         TR
       22         604800.0         10                    1.000         TR
       23         604800.0         10                    1.000         TR
       24         604800.0         10                    1.000         TR
       25         604800.0         10                    1.000         TR
       26         604800.0         10                    1.000         TR
       27         604800.0         10                    1.000         TR
       28         604800.0         10                    1.000         TR
       29         604800.0         10                    1.000         TR
       30         604800.0         10                    1.000         TR
       31         604800.0         10                    1.000         TR
       32         604800.0         10                    1.000         TR
       33         604800.0         10                    1.000         TR
       34         604800.0         10                    1.000         TR
       35         604800.0         10                    1.000         TR
       36         604800.0         10                    1.000         TR
       37         604800.0         10                    1.000         TR
       38         604800.0         10                    1.000         TR
       39         604800.0         10                    1.000         TR
       40         604800.0         10                    1.000         TR
       41         604800.0         10                    1.000         TR
       42         604800.0         10                    1.000         TR
       43         604800.0         10                    1.000         TR
       44         604800.0         10                    1.000         TR
       45         604800.0         10                    1.000         TR
       46         604800.0         10                    1.000         TR
       47         604800.0         10                    1.000         TR
       48         604800.0         10                    1.000         TR
       49         604800.0         10                    1.000         TR
       50         604800.0         10                    1.000         TR
       51         604800.0         10                    1.000         TR
       52         604800.0         10                    1.000         TR

 COMBINED STEADY-STATE AND TRANSIENT SIMULATION




 LPF1 -- LAYER PROPERTY FLOW PACKAGE, VERSION 1, 1/11/2000
         INPUT READ FROM UNIT   11
 # LPF package for  MODFLOW-2005, generated by Flopy.
 CELL-BY-CELL FLOWS WILL BE SAVED ON UNIT   40
 HEAD AT CELLS THAT CONVERT TO DRY=  -888.00    
 No named parameters

   LAYER FLAGS:
 LAYER       LAYTYP        LAYAVG         CHANI        LAYVKA        LAYWET
 ---------------------------------------------------------------------------
    1             1             0    -1.000E+00             1             0

   INTERPRETATION OF LAYER FLAGS:
                        INTERBLOCK     HORIZONTAL    DATA IN
         LAYER TYPE   TRANSMISSIVITY   ANISOTROPY   ARRAY VKA   WETTABILITY
 LAYER      (LAYTYP)      (LAYAVG)       (CHANI)      (LAYVKA)      (LAYWET)
 ---------------------------------------------------------------------------
    1   CONVERTIBLE      HARMONIC      VARIABLE    ANISOTROPY  NON-WETTABLE

     250835 ELEMENTS IN X ARRAY ARE USED BY LPF
          6 ELEMENTS IN IX ARRAY ARE USED BY LPF

 PCG2 -- CONJUGATE GRADIENT SOLUTION PACKAGE, VERSION 2.4, 12/29/98
 # PCG package for  MODFLOW-2005, generated by Flopy.
 MAXIMUM OF     25 CALLS OF SOLUTION ROUTINE
 MAXIMUM OF     50 INTERNAL ITERATIONS PER CALL TO SOLUTION ROUTINE
 MATRIX PRECONDITIONING TYPE :    1
     102834 ELEMENTS IN X ARRAY ARE USED BY PCG
       8750 ELEMENTS IN IX ARRAY ARE USED BY PCG
     200668 ELEMENTS IN Z ARRAY ARE USED BY PCG

 OBS1BAS6F -- OBSERVATION PROCESS (CONSTANT-HEAD BOUNDARY FLOW OBSERVATIONS)
 VERSION 1.0, 12/03/99
 INPUT READ FROM UNIT   8

 WARNING: OBSERVATION (OBS) FILE IS NOT LISTED BUT THE CHD OBSERVATION
 FILE (CHOB) IS LISTED -- TURNING OFF CHD OBSERVATIONS (OBS1BAS6FAL)

     353669  ELEMENTS OF X ARRAY USED OUT OF     353669
     200668  ELEMENTS OF Z ARRAY USED OUT OF     200668
       8756  ELEMENTS OF IX ARRAY USED OUT OF       8756
          0  ELEMENTS OF XHS ARRAY USED OUT OF          1



                                    SOLUTION BY THE CONJUGATE-GRADIENT METHOD
                                   -------------------------------------------
                    MAXIMUM NUMBER OF CALLS TO PCG ROUTINE =       25
                        MAXIMUM ITERATIONS PER CALL TO PCG =       50
                               MATRIX PRECONDITIONING TYPE =        1
        RELAXATION FACTOR (ONLY USED WITH PRECOND. TYPE 1) =    0.10000E+01
 PARAMETER OF POLYNOMIAL PRECOND. = 2 (2) OR IS CALCULATED :        0
                         HEAD CHANGE CRITERION FOR CLOSURE =    0.10000E-01
                     RESIDUAL CHANGE CRITERION FOR CLOSURE =    0.10000E-01
            PCG HEAD AND RESIDUAL CHANGE PRINTOUT INTERVAL =      999
     PRINTING FROM SOLVER IS LIMITED(1) OR SUPPRESSED (>1) =        2
                                         DAMPING PARAMETER =    0.10000E+01

 WETTING CAPABILITY IS NOT ACTIVE IN ANY LAYER



              HYD. COND. ALONG ROWS FOR LAYER   1
 READING ON UNIT   11 WITH FORMAT: (FREE)              



             HORIZ. ANI. (COL./ROW) FOR LAYER   1
 READING ON UNIT   11 WITH FORMAT: (FREE)              



            HORIZ. TO VERTICAL ANI. FOR LAYER   1
 READING ON UNIT   11 WITH FORMAT: (FREE)              



                   SPECIFIC STORAGE FOR LAYER   1
 READING ON UNIT   11 WITH FORMAT: (FREE)              



                     SPECIFIC YIELD FOR LAYER   1
 READING ON UNIT   11 WITH FORMAT: (FREE)              

 # BAS6 package for  MODFLOW-2005, generated by Flopy.                           
 THE FREE FORMAT OPTION HAS BEEN SELECTED
    1 LAYERS       221 ROWS       227 COLUMNS
   52 STRESS PERIOD(S) IN SIMULATION

 BAS6 -- BASIC PACKAGE, VERSION 6, 1/11/2000 INPUT READ FROM UNIT   10
          5 ELEMENTS IN IR ARRAY ARE USED BY BAS

 WEL6 -- WELL PACKAGE, VERSION 6, 1/11/2000 INPUT READ FROM UNIT   16
 # WEL package for  MODFLOW-2005, generated by Flopy.
 No named parameters
 MAXIMUM OF     93 ACTIVE WELLS AT ONE TIME
 CELL-BY-CELL FLOWS WILL BE SAVED ON UNIT   40
 AUXILIARY WELL VARIABLE: IFACE           
 AUXILIARY WELL VARIABLE: QFACT           
 AUXILIARY WELL VARIABLE: CELLGRP         
        651 ELEMENTS IN RX ARRAY ARE USED BY WEL

 RCH6 -- RECHARGE PACKAGE, VERSION 6, 1/11/2000 INPUT READ FROM UNIT   13
 # RCH package for  MODFLOW-2005, generated by Flopy.
 No named parameters
 OPTION 3 -- RECHARGE TO HIGHEST ACTIVE NODE IN EACH VERTICAL COLUMN
 CELL-BY-CELL FLOWS WILL BE SAVED ON UNIT   40
      50167 ELEMENTS IN RX ARRAY ARE USED BY RCH
      50167 ELEMENTS IN IR ARRAY ARE USED BY RCH

 CHD6 -- TIME-VARIANT SPECIFIED-HEAD PACKAGE, VERSION 6, 1/11/2000
 INPUT READ FROM UNIT   14
 # CHD package for  MODFLOW-2005, generated by Flopy.
 No named parameters
 MAXIMUM OF    115 TIME-VARIANT SPECIFIED-HEAD CELLS AT ONE TIME
        575 ELEMENTS IN RX ARRAY ARE USED BY CHD

      51393  ELEMENTS OF RX ARRAY USED OUT OF      51393
          0  ELEMENTS OF RZ ARRAY USED OUT OF          1
      50172  ELEMENTS OF IR ARRAY USED OUT OF      50172
1
 # BAS6 package for  MODFLOW-2005, generated by Flopy.                           
                                                                                 



                     BOUNDARY ARRAY FOR LAYER   1
 READING ON UNIT   10 WITH FORMAT: (FREE)              

 AQUIFER HEAD WILL BE SET TO -999.00     AT ALL NO-FLOW NODES (IBOUND=0).



                       INITIAL HEAD FOR LAYER   1
 READING ON UNIT   10 WITH FORMAT: (FREE)              
 # OC package for  MODFLOW-2005, generated by Flopy.

 OUTPUT CONTROL IS SPECIFIED ONLY AT TIME STEPS FOR WHICH OUTPUT IS DESIRED
 COMPACT CELL-BY-CELL BUDGET FILES WILL BE WRITTEN
 AUXILIARY DATA WILL BE SAVED IN CELL-BY-CELL BUDGET FILES
 HEAD PRINT FORMAT CODE IS   0    DRAWDOWN PRINT FORMAT CODE IS   0
 HEADS WILL BE SAVED ON UNIT    3    DRAWDOWNS WILL BE SAVED ON UNIT    0


     0 Well parameters


     0 Recharge parameters


     0 TIME-VARIANT SPECIFIED-HEAD PARAMETERS
1
                            STRESS PERIOD NO.    1, LENGTH =   604800.0    
                            -----------------------------------------------

                              NUMBER OF TIME STEPS =    10

                               MULTIPLIER FOR DELT =     1.000

                            INITIAL TIME STEP SIZE =   60480.00    

 WELL NO.  LAYER   ROW   COL   STRESS RATE         IFACE           QFACT           CELLGRP         
 --------------------------------------------------------------------------------------------------
      1      1    163    193       0.000           0.000           1.000           1.000    
      2      1    151    190       0.000           0.000           1.000           2.000    
      3      1    148    199       0.000           0.000           1.000           3.000    
      4      1    138    199       0.000           0.000           1.000           4.000    
      5      1    159    192       0.000           0.000           1.000           5.000    
      6      1    156    196       0.000           0.000           1.000           6.000    
      7      1    152    197       0.000           0.000           1.000           7.000    
      8      1    144    197       0.000           0.000           1.000           8.000    
      9      1    131    199       0.000           0.000           1.000           9.000    
     10      1    123    202       0.000           0.000           1.000           10.00    
     11      1    116    204       0.000           0.000           1.000           11.00    
     12      1    108    206       0.000           0.000           1.000           12.00    
     13      1    100    208       0.000           0.000           1.000           13.00    
     14      1     92    210       0.000           0.000           1.000           14.00    
     15      1     84    210       0.000           0.000           1.000           15.00    
     16      1     77    211       0.000           0.000           1.000           16.00    
     17      1     72    212       0.000           0.000           1.000           17.00    
     18      1     67    213       0.000           0.000           1.000           18.00    
     19      1     63    208       0.000           0.000           1.000           19.00    
     20      1     59    214       0.000           0.000           1.000           20.00    
     21      1     52    213       0.000           0.000           1.000           21.00    
     22      1     44    213       0.000           0.000           1.000           22.00    
     23      1    124    196       0.000           0.000           1.000           23.00    
     24      1    112    203       0.000           0.000           1.000           24.00    
     25      1     97    204       0.000           0.000           1.000           25.00    
     26      1    170    197       0.000           0.000           1.000           26.00    
     27      1    176    196       0.000           0.000           1.000           27.00    
     28      1    143    201       0.000           0.000           1.000           28.00    
     29      1    135    201       0.000           0.000           1.000           29.00    
     30      1    127    201       0.000           0.000           1.000           30.00    
     31      1    105    207       0.000           0.000           1.000           31.00    
     32      1     94    208       0.000           0.000           1.000           32.00    
     33      1     88    208       0.000           0.000           1.000           33.00    
     34      1     81    213       0.000           0.000           1.000           34.00    
     35      1     68    208       0.000           0.000           1.000           35.00    
     36      1     61    216       0.000           0.000           1.000           36.00    
     37      1     55    210       0.000           0.000           1.000           37.00    
     38      1     47    216       0.000           0.000           1.000           38.00    
     39      1     39    213       0.000           0.000           1.000           39.00    
     40      1     38    218       0.000           0.000           1.000           40.00    
     41      1     80    208       0.000           0.000           1.000           41.00    
     42      1    118    201       0.000           0.000           1.000           42.00    
     43      1    134    197       0.000           0.000           1.000           43.00    
     44      1    158    200       0.000           0.000           1.000           44.00    
     45      1    165    198       0.000           0.000           1.000           45.00    
     46      1    169    194       0.000           0.000           1.000           46.00    
     47      1    181    197       0.000           0.000           1.000           47.00    
     48      1    174    193       0.000           0.000           1.000           48.00    
     49      1     65    217       0.000           0.000           1.000           49.00    
     50      1     61    211       0.000           0.000           1.000           50.00    
     51      1     56    215       0.000           0.000           1.000           51.00    
     52      1     39    216       0.000           0.000           1.000           52.00    
     53      1     32    218       0.000           0.000           1.000           53.00    
     54      1     73    208       0.000           0.000           1.000           54.00    
     55      1     76    213       0.000           0.000           1.000           55.00    
     56      1     83    206       0.000           0.000           1.000           56.00    
     57      1     88    211       0.000           0.000           1.000           57.00    
     58      1     48    212       0.000           0.000           1.000           58.00    
     59      1    103    205       0.000           0.000           1.000           59.00    
     60      1     91    205       0.000           0.000           1.000           60.00    
     61      1    106    202       0.000           0.000           1.000           61.00    
     62      1    114    206       0.000           0.000           1.000           62.00    
     63      1    116    198       0.000           0.000           1.000           63.00    
     64      1    127    198       0.000           0.000           1.000           64.00    
     65      1    131    203       0.000           0.000           1.000           65.00    
     66      1    138    195       0.000           0.000           1.000           66.00    
     67      1    152    200       0.000           0.000           1.000           67.00    
     68      1    145    193       0.000           0.000           1.000           68.00    
     69      1    130    195       0.000           0.000           1.000           69.00    
     70      1    162    197       0.000           0.000           1.000           70.00    
     71      1    166    190       0.000           0.000           1.000           71.00    
     72      1     86    204       0.000           0.000           1.000           72.00    
     73      1    173    198       0.000           0.000           1.000           73.00    
     74      1    170    190       0.000           0.000           1.000           74.00    
     75      1    180    193       0.000           0.000           1.000           75.00    
     76      1    149    194       0.000           0.000           1.000           76.00    
     77      1     35    218       0.000           0.000           1.000           77.00    
     78      1     34    215       0.000           0.000           1.000           78.00    
     79      1     43    215       0.000           0.000           1.000           79.00    
     80      1     52    217       0.000           0.000           1.000           80.00    
     81      1     59    217       0.000           0.000           1.000           81.00    
     82      1     57    211       0.000           0.000           1.000           82.00    
     83      1     63    213       0.000           0.000           1.000           83.00    
     84      1     42    211       0.000           0.000           1.000           84.00    
     85      1     35    214       0.000           0.000           1.000           85.00    
     86      1     51    211       0.000           0.000           1.000           86.00    
     87      1     46    209       0.000           0.000           1.000           87.00    
     88      1     65    211       0.000           0.000           1.000           88.00    
     89      1     54    213       0.000           0.000           1.000           89.00    
     90      1     53    208       0.000           0.000           1.000           90.00    
     91      1     69    216       0.000           0.000           1.000           91.00    
     92      1     77    208       0.000           0.000           1.000           92.00    
     93      1     78    205       0.000           0.000           1.000           93.00    

     93 WELLS



                           RECHARGE
 READING ON UNIT   13 WITH FORMAT: (FREE)              

 CHD NO.   LAYER   ROW   COL    START HEAD        END HEAD         
 ------------------------------------------------------------------
      1      1      8    222       0.000           0.000    
      2      1      9    222       0.000           0.000    
      3      1     10    222       0.000           0.000    
      4      1     11    222       0.000           0.000    
      5      1     12    222       0.000           0.000    
      6      1     15    221       0.000           0.000    
      7      1     16    221       0.000           0.000    
      8      1     17    221       0.000           0.000    
      9      1     18    221       0.000           0.000    
     10      1     19    221       0.000           0.000    
     11      1     24    220       0.000           0.000    
     12      1     25    220       0.000           0.000    
     13      1     26    220       0.000           0.000    
     14      1     27    220       0.000           0.000    
     15      1     28    220       0.000           0.000    
     16      1     29    220       0.000           0.000    
     17      1     37    219       0.000           0.000    
     18      1     38    219       0.000           0.000    
     19      1     39    219       0.000           0.000    
     20      1     40    219       0.000           0.000    
     21      1     41    218       0.000           0.000    
     22      1     42    218       0.000           0.000    
     23      1     43    218       0.000           0.000    
     24      1     46    217       0.000           0.000    
     25      1     47    217       0.000           0.000    
     26      1     48    217       0.000           0.000    
     27      1     50    218       0.000           0.000    
     28      1     51    218       0.000           0.000    
     29      1     56    219       0.000           0.000    
     30      1     57    219       0.000           0.000    
     31      1     58    219       0.000           0.000    
     32      1     64    218       0.000           0.000    
     33      1     65    218       0.000           0.000    
     34      1     66    218       0.000           0.000    
     35      1     67    218       0.000           0.000    
     36      1     69    217       0.000           0.000    
     37      1     70    217       0.000           0.000    
     38      1     72    216       0.000           0.000    
     39      1     73    216       0.000           0.000    
     40      1     78    215       0.000           0.000    
     41      1     79    215       0.000           0.000    
     42      1     80    215       0.000           0.000    
     43      1     81    215       0.000           0.000    
     44      1     84    214       0.000           0.000    
     45      1     85    214       0.000           0.000    
     46      1     86    214       0.000           0.000    
     47      1     87    214       0.000           0.000    
     48      1     90    213       0.000           0.000    
     49      1     91    213       0.000           0.000    
     50      1     92    213       0.000           0.000    
     51      1     93    213       0.000           0.000    
     52      1     96    212       0.000           0.000    
     53      1     97    212       0.000           0.000    
     54      1     98    212       0.000           0.000    
     55      1    101    211       0.000           0.000    
     56      1    102    211       0.000           0.000    
     57      1    104    210       0.000           0.000    
     58      1    105    210       0.000           0.000    
     59      1    107    209       0.000           0.000    
     60      1    108    209       0.000           0.000    
     61      1    109    209       0.000           0.000    
     62      1    111    208       0.000           0.000    
     63      1    112    208       0.000           0.000    
     64      1    113    208       0.000           0.000    
     65      1    115    207       0.000           0.000    
     66      1    116    207       0.000           0.000    
     67      1    117    207       0.000           0.000    
     68      1    120    206       0.000           0.000    
     69      1    122    205       0.000           0.000    
     70      1    123    205       0.000           0.000    
     71      1    124    205       0.000           0.000    
     72      1    131    204       0.000           0.000    
     73      1    132    204       0.000           0.000    
     74      1    133    204       0.000           0.000    
     75      1    134    204       0.000           0.000    
     76      1    135    204       0.000           0.000    
     77      1    136    204       0.000           0.000    
     78      1    137    204       0.000           0.000    
     79      1    141    203       0.000           0.000    
     80      1    142    203       0.000           0.000    
     81      1    143    203       0.000           0.000    
     82      1    148    202       0.000           0.000    
     83      1    149    202       0.000           0.000    
     84      1    150    202       0.000           0.000    
     85      1    151    202       0.000           0.000    
     86      1    152    202       0.000           0.000    
     87      1    153    202       0.000           0.000    
     88      1    164    201       0.000           0.000    
     89      1    165    201       0.000           0.000    
     90      1    166    201       0.000           0.000    
     91      1    167    201       0.000           0.000    
     92      1    168    201       0.000           0.000    
     93      1    169    201       0.000           0.000    
     94      1    173    200       0.000           0.000    
     95      1    174    200       0.000           0.000    
     96      1    175    200       0.000           0.000    
     97      1    179    199       0.000           0.000    
     98      1    180    199       0.000           0.000    
     99      1    181    199       0.000           0.000    
    100      1    182    199       0.000           0.000    
    101      1    189    198       0.000           0.000    
    102      1    190    198       0.000           0.000    
    103      1    191    198       0.000           0.000    
    104      1    192    198       0.000           0.000    
    105      1    193    198       0.000           0.000    
    106      1    194    198       0.000           0.000    
    107      1    198    197       0.000           0.000    
    108      1    199    197       0.000           0.000    
    109      1    200    197       0.000           0.000    
    110      1    203    197       0.000           0.000    
    111      1    204    197       0.000           0.000    
    112      1    205    197       0.000           0.000    
    113      1    206    197       0.000           0.000    
    114      1    207    197       0.000           0.000    
    115      1    208    197       0.000           0.000    


    115 TIME-VARIANT SPECIFIED-HEAD CELLS

 SOLVING FOR HEAD 

 CELL CONVERSIONS FOR ITER.=  2  LAYER=  1  STEP=  1  PERIOD=   1   (ROW,COL)
    DRY(196,170)   

 OUTPUT CONTROL FOR STRESS PERIOD    1   TIME STEP   1
    PRINT BUDGET
    SAVE HEAD FOR ALL LAYERS
    SAVE BUDGET
 UBDSV2 SAVING "   CONSTANT HEAD" ON UNIT  40 AT TIME STEP  1, STRESS PERIOD   1
 UBDSV1 SAVING "FLOW RIGHT FACE " ON UNIT  40 AT TIME STEP  1, STRESS PERIOD   1
 UBDSV1 SAVING "FLOW FRONT FACE " ON UNIT  40 AT TIME STEP  1, STRESS PERIOD   1
 UBDSV4 SAVING "           WELLS" ON UNIT  40 AT TIME STEP  1, STRESS PERIOD   1
 UBDSV3 SAVING "        RECHARGE" ON UNIT  40 AT TIME STEP  1, STRESS PERIOD   1

 HEAD WILL BE SAVED ON UNIT    3 AT END OF TIME STEP   1, STRESS PERIOD    1
1
  VOLUMETRIC BUDGET FOR ENTIRE MODEL AT END OF TIME STEP  1 IN STRESS PERIOD   1
  ------------------------------------------------------------------------------

     CUMULATIVE VOLUMES      L**3       RATES FOR THIS TIME STEP      L**3/T
     ------------------                 ------------------------

           IN:                                      IN:
           ---                                      ---
             STORAGE =           0.0000               STORAGE =           0.0000
       CONSTANT HEAD =           0.0000         CONSTANT HEAD =           0.0000
               WELLS =           0.0000                 WELLS =           0.0000
            RECHARGE =       24810.5605              RECHARGE =           0.4102

            TOTAL IN =       24810.5605              TOTAL IN =           0.4102

          OUT:                                     OUT:
          ----                                     ----
             STORAGE =           0.0000               STORAGE =           0.0000
       CONSTANT HEAD =       24823.0449         CONSTANT HEAD =           0.4104
               WELLS =           0.0000                 WELLS =           0.0000
            RECHARGE =           0.0000              RECHARGE =           0.0000

           TOTAL OUT =       24823.0449             TOTAL OUT =           0.4104

            IN - OUT =         -12.4844              IN - OUT =      -2.0641E-04

 PERCENT DISCREPANCY =          -0.05     PERCENT DISCREPANCY =          -0.05






          TIME SUMMARY AT END OF TIME STEP   1 IN STRESS PERIOD    1
                    SECONDS     MINUTES      HOURS       DAYS        YEARS
                    -----------------------------------------------------------
   TIME STEP LENGTH  60480.      1008.0      16.800     0.70000     1.91650E-03
 STRESS PERIOD TIME  60480.      1008.0      16.800     0.70000     1.91650E-03
         TOTAL TIME  60480.      1008.0      16.800     0.70000     1.91650E-03
1

 SOLVING FOR HEAD 

 OUTPUT CONTROL FOR STRESS PERIOD    1   TIME STEP   2
    PRINT BUDGET
    SAVE HEAD FOR ALL LAYERS
    SAVE BUDGET
 UBDSV2 SAVING "   CONSTANT HEAD" ON UNIT  40 AT TIME STEP  2, STRESS PERIOD   1
 UBDSV1 SAVING "FLOW RIGHT FACE " ON UNIT  40 AT TIME STEP  2, STRESS PERIOD   1
 UBDSV1 SAVING "FLOW FRONT FACE " ON UNIT  40 AT TIME STEP  2, STRESS PERIOD   1
 UBDSV4 SAVING "           WELLS" ON UNIT  40 AT TIME STEP  2, STRESS PERIOD   1
 UBDSV3 SAVING "        RECHARGE" ON UNIT  40 AT TIME STEP  2, STRESS PERIOD   1

 HEAD WILL BE SAVED ON UNIT    3 AT END OF TIME STEP   2, STRESS PERIOD    1
1
  VOLUMETRIC BUDGET FOR ENTIRE MODEL AT END OF TIME STEP  2 IN STRESS PERIOD   1
  ------------------------------------------------------------------------------

     CUMULATIVE VOLUMES      L**3       RATES FOR THIS TIME STEP      L**3/T
     ------------------                 ------------------------

           IN:                                      IN:
           ---                                      ---
             STORAGE =           0.0000               STORAGE =           0.0000
       CONSTANT HEAD =           0.0000         CONSTANT HEAD =           0.0000
               WELLS =           0.0000                 WELLS =           0.0000
            RECHARGE =       49621.1211              RECHARGE =           0.4102

            TOTAL IN =       49621.1211              TOTAL IN =           0.4102

          OUT:                                     OUT:
          ----                                     ----
             STORAGE =           0.0000               STORAGE =           0.0000
       CONSTANT HEAD =       49645.7891         CONSTANT HEAD =           0.4104
               WELLS =           0.0000                 WELLS =           0.0000
            RECHARGE =           0.0000              RECHARGE =           0.0000

           TOTAL OUT =       49645.7891             TOTAL OUT =           0.4104

            IN - OUT =         -24.6680              IN - OUT =      -2.0140E-04

 PERCENT DISCREPANCY =          -0.05     PERCENT DISCREPANCY =          -0.05






          TIME SUMMARY AT END OF TIME STEP   2 IN STRESS PERIOD    1
                    SECONDS     MINUTES      HOURS       DAYS        YEARS
                    -----------------------------------------------------------
   TIME STEP LENGTH  60480.      1008.0      16.800     0.70000     1.91650E-03
 STRESS PERIOD TIME 1.20960E+05  2016.0      33.600      1.4000     3.83299E-03
         TOTAL TIME 1.20960E+05  2016.0      33.600      1.4000     3.83299E-03
1

 SOLVING FOR HEAD 

 OUTPUT CONTROL FOR STRESS PERIOD    1   TIME STEP   3
    PRINT BUDGET
    SAVE HEAD FOR ALL LAYERS
    SAVE BUDGET
 UBDSV2 SAVING "   CONSTANT HEAD" ON UNIT  40 AT TIME STEP  3, STRESS PERIOD   1
 UBDSV1 SAVING "FLOW RIGHT FACE " ON UNIT  40 AT TIME STEP  3, STRESS PERIOD   1
 UBDSV1 SAVING "FLOW FRONT FACE " ON UNIT  40 AT TIME STEP  3, STRESS PERIOD   1
 UBDSV4 SAVING "           WELLS" ON UNIT  40 AT TIME STEP  3, STRESS PERIOD   1
 UBDSV3 SAVING "        RECHARGE" ON UNIT  40 AT TIME STEP  3, STRESS PERIOD   1

 HEAD WILL BE SAVED ON UNIT    3 AT END OF TIME STEP   3, STRESS PERIOD    1
1
  VOLUMETRIC BUDGET FOR ENTIRE MODEL AT END OF TIME STEP  3 IN STRESS PERIOD   1
  ------------------------------------------------------------------------------

     CUMULATIVE VOLUMES      L**3       RATES FOR THIS TIME STEP      L**3/T
     ------------------                 ------------------------

           IN:                                      IN:
           ---                                      ---
             STORAGE =           0.0000               STORAGE =           0.0000
       CONSTANT HEAD =           0.0000         CONSTANT HEAD =           0.0000
               WELLS =           0.0000                 WELLS =           0.0000
            RECHARGE =       74431.6797              RECHARGE =           0.4102

            TOTAL IN =       74431.6797              TOTAL IN =           0.4102

          OUT:                                     OUT:
          ----                                     ----
             STORAGE =           0.0000               STORAGE =           0.0000
       CONSTANT HEAD =       74468.9141         CONSTANT HEAD =           0.4104
               WELLS =           0.0000                 WELLS =           0.0000
            RECHARGE =           0.0000              RECHARGE =           0.0000

           TOTAL OUT =       74468.9141             TOTAL OUT =           0.4104

            IN - OUT =         -37.2344              IN - OUT =      -2.0775E-04

 PERCENT DISCREPANCY =          -0.05     PERCENT DISCREPANCY =          -0.05






          TIME SUMMARY AT END OF TIME STEP   3 IN STRESS PERIOD    1
                    SECONDS     MINUTES      HOURS       DAYS        YEARS
                    -----------------------------------------------------------
   TIME STEP LENGTH  60480.      1008.0      16.800     0.70000     1.91650E-03
 STRESS PERIOD TIME 1.81440E+05  3024.0      50.400      2.1000     5.74949E-03
         TOTAL TIME 1.81440E+05  3024.0      50.400      2.1000     5.74949E-03
1

 SOLVING FOR HEAD 

 OUTPUT CONTROL FOR STRESS PERIOD    1   TIME STEP   4
    PRINT BUDGET
    SAVE HEAD FOR ALL LAYERS
    SAVE BUDGET
 UBDSV2 SAVING "   CONSTANT HEAD" ON UNIT  40 AT TIME STEP  4, STRESS PERIOD   1
 UBDSV1 SAVING "FLOW RIGHT FACE " ON UNIT  40 AT TIME STEP  4, STRESS PERIOD   1
 UBDSV1 SAVING "FLOW FRONT FACE " ON UNIT  40 AT TIME STEP  4, STRESS PERIOD   1
 UBDSV4 SAVING "           WELLS" ON UNIT  40 AT TIME STEP  4, STRESS PERIOD   1
 UBDSV3 SAVING "        RECHARGE" ON UNIT  40 AT TIME STEP  4, STRESS PERIOD   1

 HEAD WILL BE SAVED ON UNIT    3 AT END OF TIME STEP   4, STRESS PERIOD    1
1
  VOLUMETRIC BUDGET FOR ENTIRE MODEL AT END OF TIME STEP  4 IN STRESS PERIOD   1
  ------------------------------------------------------------------------------

     CUMULATIVE VOLUMES      L**3       RATES FOR THIS TIME STEP      L**3/T
     ------------------                 ------------------------

           IN:                                      IN:
           ---                                      ---
             STORAGE =           0.0000               STORAGE =           0.0000
       CONSTANT HEAD =           0.0000         CONSTANT HEAD =           0.0000
               WELLS =           0.0000                 WELLS =           0.0000
            RECHARGE =       99242.2422              RECHARGE =           0.4102

            TOTAL IN =       99242.2422              TOTAL IN =           0.4102

          OUT:                                     OUT:
          ----                                     ----
             STORAGE =           0.0000               STORAGE =           0.0000
       CONSTANT HEAD =       99291.9688         CONSTANT HEAD =           0.4104
               WELLS =           0.0000                 WELLS =           0.0000
            RECHARGE =           0.0000              RECHARGE =           0.0000

           TOTAL OUT =       99291.9688             TOTAL OUT =           0.4104

            IN - OUT =         -49.7266              IN - OUT =      -2.0659E-04

 PERCENT DISCREPANCY =          -0.05     PERCENT DISCREPANCY =          -0.05






          TIME SUMMARY AT END OF TIME STEP   4 IN STRESS PERIOD    1
                    SECONDS     MINUTES      HOURS       DAYS        YEARS
                    -----------------------------------------------------------
   TIME STEP LENGTH  60480.      1008.0      16.800     0.70000     1.91650E-03
 STRESS PERIOD TIME 2.41920E+05  4032.0      67.200      2.8000     7.66598E-03
         TOTAL TIME 2.41920E+05  4032.0      67.200      2.8000     7.66598E-03
1

 SOLVING FOR HEAD 

 OUTPUT CONTROL FOR STRESS PERIOD    1   TIME STEP   5
    PRINT BUDGET
    SAVE HEAD FOR ALL LAYERS
    SAVE BUDGET
 UBDSV2 SAVING "   CONSTANT HEAD" ON UNIT  40 AT TIME STEP  5, STRESS PERIOD   1
 UBDSV1 SAVING "FLOW RIGHT FACE " ON UNIT  40 AT TIME STEP  5, STRESS PERIOD   1
 UBDSV1 SAVING "FLOW FRONT FACE " ON UNIT  40 AT TIME STEP  5, STRESS PERIOD   1
 UBDSV4 SAVING "           WELLS" ON UNIT  40 AT TIME STEP  5, STRESS PERIOD   1
 UBDSV3 SAVING "        RECHARGE" ON UNIT  40 AT TIME STEP  5, STRESS PERIOD   1

 HEAD WILL BE SAVED ON UNIT    3 AT END OF TIME STEP   5, STRESS PERIOD    1
1
  VOLUMETRIC BUDGET FOR ENTIRE MODEL AT END OF TIME STEP  5 IN STRESS PERIOD   1
  ------------------------------------------------------------------------------

     CUMULATIVE VOLUMES      L**3       RATES FOR THIS TIME STEP      L**3/T
     ------------------                 ------------------------

           IN:                                      IN:
           ---                                      ---
             STORAGE =           0.0000               STORAGE =           0.0000
       CONSTANT HEAD =           0.0000         CONSTANT HEAD =           0.0000
               WELLS =           0.0000                 WELLS =           0.0000
            RECHARGE =      124052.8047              RECHARGE =           0.4102

            TOTAL IN =      124052.8047              TOTAL IN =           0.4102

          OUT:                                     OUT:
          ----                                     ----
             STORAGE =           0.0000               STORAGE =           0.0000
       CONSTANT HEAD =      124114.9922         CONSTANT HEAD =           0.4104
               WELLS =           0.0000                 WELLS =           0.0000
            RECHARGE =           0.0000              RECHARGE =           0.0000

           TOTAL OUT =      124114.9922             TOTAL OUT =           0.4104

            IN - OUT =         -62.1875              IN - OUT =      -2.0602E-04

 PERCENT DISCREPANCY =          -0.05     PERCENT DISCREPANCY =          -0.05






          TIME SUMMARY AT END OF TIME STEP   5 IN STRESS PERIOD    1
                    SECONDS     MINUTES      HOURS       DAYS        YEARS
                    -----------------------------------------------------------
   TIME STEP LENGTH  60480.      1008.0      16.800     0.70000     1.91650E-03
 STRESS PERIOD TIME 3.02400E+05  5040.0      84.000      3.5000     9.58248E-03
         TOTAL TIME 3.02400E+05  5040.0      84.000      3.5000     9.58248E-03
1

 SOLVING FOR HEAD 

 OUTPUT CONTROL FOR STRESS PERIOD    1   TIME STEP   6
    PRINT BUDGET
    SAVE HEAD FOR ALL LAYERS
    SAVE BUDGET
 UBDSV2 SAVING "   CONSTANT HEAD" ON UNIT  40 AT TIME STEP  6, STRESS PERIOD   1
 UBDSV1 SAVING "FLOW RIGHT FACE " ON UNIT  40 AT TIME STEP  6, STRESS PERIOD   1
 UBDSV1 SAVING "FLOW FRONT FACE " ON UNIT  40 AT TIME STEP  6, STRESS PERIOD   1
 UBDSV4 SAVING "           WELLS" ON UNIT  40 AT TIME STEP  6, STRESS PERIOD   1
 UBDSV3 SAVING "        RECHARGE" ON UNIT  40 AT TIME STEP  6, STRESS PERIOD   1

 HEAD WILL BE SAVED ON UNIT    3 AT END OF TIME STEP   6, STRESS PERIOD    1
1
  VOLUMETRIC BUDGET FOR ENTIRE MODEL AT END OF TIME STEP  6 IN STRESS PERIOD   1
  ------------------------------------------------------------------------------

     CUMULATIVE VOLUMES      L**3       RATES FOR THIS TIME STEP      L**3/T
     ------------------                 ------------------------

           IN:                                      IN:
           ---                                      ---
             STORAGE =           0.0000               STORAGE =           0.0000
       CONSTANT HEAD =           0.0000         CONSTANT HEAD =           0.0000
               WELLS =           0.0000                 WELLS =           0.0000
            RECHARGE =      148863.3594              RECHARGE =           0.4102

            TOTAL IN =      148863.3594              TOTAL IN =           0.4102

          OUT:                                     OUT:
          ----                                     ----
             STORAGE =           0.0000               STORAGE =           0.0000
       CONSTANT HEAD =      148938.0000         CONSTANT HEAD =           0.4104
               WELLS =           0.0000                 WELLS =           0.0000
            RECHARGE =           0.0000              RECHARGE =           0.0000

           TOTAL OUT =      148938.0000             TOTAL OUT =           0.4104

            IN - OUT =         -74.6406              IN - OUT =      -2.0584E-04

 PERCENT DISCREPANCY =          -0.05     PERCENT DISCREPANCY =          -0.05






          TIME SUMMARY AT END OF TIME STEP   6 IN STRESS PERIOD    1
                    SECONDS     MINUTES      HOURS       DAYS        YEARS
                    -----------------------------------------------------------
   TIME STEP LENGTH  60480.      1008.0      16.800     0.70000     1.91650E-03
 STRESS PERIOD TIME 3.62880E+05  6048.0      100.80      4.2000     1.14990E-02
         TOTAL TIME 3.62880E+05  6048.0      100.80      4.2000     1.14990E-02
1

 SOLVING FOR HEAD 

 OUTPUT CONTROL FOR STRESS PERIOD    1   TIME STEP   7
    PRINT BUDGET
    SAVE HEAD FOR ALL LAYERS
    SAVE BUDGET
 UBDSV2 SAVING "   CONSTANT HEAD" ON UNIT  40 AT TIME STEP  7, STRESS PERIOD   1
 UBDSV1 SAVING "FLOW RIGHT FACE " ON UNIT  40 AT TIME STEP  7, STRESS PERIOD   1
 UBDSV1 SAVING "FLOW FRONT FACE " ON UNIT  40 AT TIME STEP  7, STRESS PERIOD   1
 UBDSV4 SAVING "           WELLS" ON UNIT  40 AT TIME STEP  7, STRESS PERIOD   1
 UBDSV3 SAVING "        RECHARGE" ON UNIT  40 AT TIME STEP  7, STRESS PERIOD   1

 HEAD WILL BE SAVED ON UNIT    3 AT END OF TIME STEP   7, STRESS PERIOD    1
1
  VOLUMETRIC BUDGET FOR ENTIRE MODEL AT END OF TIME STEP  7 IN STRESS PERIOD   1
  ------------------------------------------------------------------------------

     CUMULATIVE VOLUMES      L**3       RATES FOR THIS TIME STEP      L**3/T
     ------------------                 ------------------------

           IN:                                      IN:
           ---                                      ---
             STORAGE =           0.0000               STORAGE =           0.0000
       CONSTANT HEAD =           0.0000         CONSTANT HEAD =           0.0000
               WELLS =           0.0000                 WELLS =           0.0000
            RECHARGE =      173673.9219              RECHARGE =           0.4102

            TOTAL IN =      173673.9219              TOTAL IN =           0.4102

          OUT:                                     OUT:
          ----                                     ----
             STORAGE =           0.0000               STORAGE =           0.0000
       CONSTANT HEAD =      173761.0156         CONSTANT HEAD =           0.4104
               WELLS =           0.0000                 WELLS =           0.0000
            RECHARGE =           0.0000              RECHARGE =           0.0000

           TOTAL OUT =      173761.0156             TOTAL OUT =           0.4104

            IN - OUT =         -87.0938              IN - OUT =      -2.0587E-04

 PERCENT DISCREPANCY =          -0.05     PERCENT DISCREPANCY =          -0.05






          TIME SUMMARY AT END OF TIME STEP   7 IN STRESS PERIOD    1
                    SECONDS     MINUTES      HOURS       DAYS        YEARS
                    -----------------------------------------------------------
   TIME STEP LENGTH  60480.      1008.0      16.800     0.70000     1.91650E-03
 STRESS PERIOD TIME 4.23360E+05  7056.0      117.60      4.9000     1.34155E-02
         TOTAL TIME 4.23360E+05  7056.0      117.60      4.9000     1.34155E-02
1

 SOLVING FOR HEAD 

 OUTPUT CONTROL FOR STRESS PERIOD    1   TIME STEP   8
    PRINT BUDGET
    SAVE HEAD FOR ALL LAYERS
    SAVE BUDGET
 UBDSV2 SAVING "   CONSTANT HEAD" ON UNIT  40 AT TIME STEP  8, STRESS PERIOD   1
 UBDSV1 SAVING "FLOW RIGHT FACE " ON UNIT  40 AT TIME STEP  8, STRESS PERIOD   1
 UBDSV1 SAVING "FLOW FRONT FACE " ON UNIT  40 AT TIME STEP  8, STRESS PERIOD   1
 UBDSV4 SAVING "           WELLS" ON UNIT  40 AT TIME STEP  8, STRESS PERIOD   1
 UBDSV3 SAVING "        RECHARGE" ON UNIT  40 AT TIME STEP  8, STRESS PERIOD   1

 HEAD WILL BE SAVED ON UNIT    3 AT END OF TIME STEP   8, STRESS PERIOD    1
1
  VOLUMETRIC BUDGET FOR ENTIRE MODEL AT END OF TIME STEP  8 IN STRESS PERIOD   1
  ------------------------------------------------------------------------------

     CUMULATIVE VOLUMES      L**3       RATES FOR THIS TIME STEP      L**3/T
     ------------------                 ------------------------

           IN:                                      IN:
           ---                                      ---
             STORAGE =           0.0000               STORAGE =           0.0000
       CONSTANT HEAD =           0.0000         CONSTANT HEAD =           0.0000
               WELLS =           0.0000                 WELLS =           0.0000
            RECHARGE =      198484.4844              RECHARGE =           0.4102

            TOTAL IN =      198484.4844              TOTAL IN =           0.4102

          OUT:                                     OUT:
          ----                                     ----
             STORAGE =           0.0000               STORAGE =           0.0000
       CONSTANT HEAD =      198584.0312         CONSTANT HEAD =           0.4104
               WELLS =           0.0000                 WELLS =           0.0000
            RECHARGE =           0.0000              RECHARGE =           0.0000

           TOTAL OUT =      198584.0312             TOTAL OUT =           0.4104

            IN - OUT =         -99.5469              IN - OUT =      -2.0596E-04

 PERCENT DISCREPANCY =          -0.05     PERCENT DISCREPANCY =          -0.05






          TIME SUMMARY AT END OF TIME STEP   8 IN STRESS PERIOD    1
                    SECONDS     MINUTES      HOURS       DAYS        YEARS
                    -----------------------------------------------------------
   TIME STEP LENGTH  60480.      1008.0      16.800     0.70000     1.91650E-03
 STRESS PERIOD TIME 4.83840E+05  8064.0      134.40      5.6000     1.53320E-02
         TOTAL TIME 4.83840E+05  8064.0      134.40      5.6000     1.53320E-02
1

 SOLVING FOR HEAD 

 OUTPUT CONTROL FOR STRESS PERIOD    1   TIME STEP   9
    PRINT BUDGET
    SAVE HEAD FOR ALL LAYERS
    SAVE BUDGET
 UBDSV2 SAVING "   CONSTANT HEAD" ON UNIT  40 AT TIME STEP  9, STRESS PERIOD   1
 UBDSV1 SAVING "FLOW RIGHT FACE " ON UNIT  40 AT TIME STEP  9, STRESS PERIOD   1
 UBDSV1 SAVING "FLOW FRONT FACE " ON UNIT  40 AT TIME STEP  9, STRESS PERIOD   1
 UBDSV4 SAVING "           WELLS" ON UNIT  40 AT TIME STEP  9, STRESS PERIOD   1
 UBDSV3 SAVING "        RECHARGE" ON UNIT  40 AT TIME STEP  9, STRESS PERIOD   1

 HEAD WILL BE SAVED ON UNIT    3 AT END OF TIME STEP   9, STRESS PERIOD    1
1
  VOLUMETRIC BUDGET FOR ENTIRE MODEL AT END OF TIME STEP  9 IN STRESS PERIOD   1
  ------------------------------------------------------------------------------

     CUMULATIVE VOLUMES      L**3       RATES FOR THIS TIME STEP      L**3/T
     ------------------                 ------------------------

           IN:                                      IN:
           ---                                      ---
             STORAGE =           0.0000               STORAGE =           0.0000
       CONSTANT HEAD =           0.0000         CONSTANT HEAD =           0.0000
               WELLS =           0.0000                 WELLS =           0.0000
            RECHARGE =      223295.0469              RECHARGE =           0.4102

            TOTAL IN =      223295.0469              TOTAL IN =           0.4102

          OUT:                                     OUT:
          ----                                     ----
             STORAGE =           0.0000               STORAGE =           0.0000
       CONSTANT HEAD =      223407.0625         CONSTANT HEAD =           0.4104
               WELLS =           0.0000                 WELLS =           0.0000
            RECHARGE =           0.0000              RECHARGE =           0.0000

           TOTAL OUT =      223407.0625             TOTAL OUT =           0.4104

            IN - OUT =        -112.0156              IN - OUT =      -2.0608E-04

 PERCENT DISCREPANCY =          -0.05     PERCENT DISCREPANCY =          -0.05






          TIME SUMMARY AT END OF TIME STEP   9 IN STRESS PERIOD    1
                    SECONDS     MINUTES      HOURS       DAYS        YEARS
                    -----------------------------------------------------------
   TIME STEP LENGTH  60480.      1008.0      16.800     0.70000     1.91650E-03
 STRESS PERIOD TIME 5.44320E+05  9072.0      151.20      6.3000     1.72485E-02
         TOTAL TIME 5.44320E+05  9072.0      151.20      6.3000     1.72485E-02
1

 SOLVING FOR HEAD 

 OUTPUT CONTROL FOR STRESS PERIOD    1   TIME STEP  10
    PRINT BUDGET
    SAVE HEAD FOR ALL LAYERS
    SAVE BUDGET
 UBDSV2 SAVING "   CONSTANT HEAD" ON UNIT  40 AT TIME STEP 10, STRESS PERIOD   1
 UBDSV1 SAVING "FLOW RIGHT FACE " ON UNIT  40 AT TIME STEP 10, STRESS PERIOD   1
 UBDSV1 SAVING "FLOW FRONT FACE " ON UNIT  40 AT TIME STEP 10, STRESS PERIOD   1
 UBDSV4 SAVING "           WELLS" ON UNIT  40 AT TIME STEP 10, STRESS PERIOD   1
 UBDSV3 SAVING "        RECHARGE" ON UNIT  40 AT TIME STEP 10, STRESS PERIOD   1

 HEAD WILL BE SAVED ON UNIT    3 AT END OF TIME STEP  10, STRESS PERIOD    1
1
  VOLUMETRIC BUDGET FOR ENTIRE MODEL AT END OF TIME STEP 10 IN STRESS PERIOD   1
  ------------------------------------------------------------------------------

     CUMULATIVE VOLUMES      L**3       RATES FOR THIS TIME STEP      L**3/T
     ------------------                 ------------------------

           IN:                                      IN:
           ---                                      ---
             STORAGE =           0.0000               STORAGE =           0.0000
       CONSTANT HEAD =           0.0000         CONSTANT HEAD =           0.0000
               WELLS =           0.0000                 WELLS =           0.0000
            RECHARGE =      248105.6094              RECHARGE =           0.4102

            TOTAL IN =      248105.6094              TOTAL IN =           0.4102

          OUT:                                     OUT:
          ----                                     ----
             STORAGE =           0.0000               STORAGE =           0.0000
       CONSTANT HEAD =      248230.0938         CONSTANT HEAD =           0.4104
               WELLS =           0.0000                 WELLS =           0.0000
            RECHARGE =           0.0000              RECHARGE =           0.0000

           TOTAL OUT =      248230.0938             TOTAL OUT =           0.4104

            IN - OUT =        -124.4844              IN - OUT =      -2.0623E-04

 PERCENT DISCREPANCY =          -0.05     PERCENT DISCREPANCY =          -0.05






          TIME SUMMARY AT END OF TIME STEP  10 IN STRESS PERIOD    1
                    SECONDS     MINUTES      HOURS       DAYS        YEARS
                    -----------------------------------------------------------
   TIME STEP LENGTH  60480.      1008.0      16.800     0.70000     1.91650E-03
 STRESS PERIOD TIME 6.04800E+05  10080.      168.00      7.0000     1.91650E-02
         TOTAL TIME 6.04800E+05  10080.      168.00      7.0000     1.91650E-02
1
1
                            STRESS PERIOD NO.    2, LENGTH =   604800.0    
                            -----------------------------------------------

                              NUMBER OF TIME STEPS =    10

                               MULTIPLIER FOR DELT =     1.000

                            INITIAL TIME STEP SIZE =   60480.00    

 WELL NO.  LAYER   ROW   COL   STRESS RATE         IFACE           QFACT           CELLGRP         
 --------------------------------------------------------------------------------------------------
      1      1    163    193     -0.1110E-01       0.000           1.000           1.000    
      2      1    151    190     -0.9700E-02       0.000           1.000           2.000    
      3      1    148    199     -0.9700E-02       0.000           1.000           3.000    
      4      1    138    199     -0.8300E-02       0.000           1.000           4.000    
      5      1    159    192     -0.4200E-02       0.000           1.000           5.000    
      6      1    156    196     -0.1400E-02       0.000           1.000           6.000    
      7      1    152    197     -0.1110E-01       0.000           1.000           7.000    
      8      1    144    197     -0.1250E-01       0.000           1.000           8.000    
      9      1    131    199     -0.4200E-02       0.000           1.000           9.000    
     10      1    123    202     -0.8300E-02       0.000           1.000           10.00    
     11      1    116    204     -0.1400E-02       0.000           1.000           11.00    
     12      1    108    206     -0.9700E-02       0.000           1.000           12.00    
     13      1    100    208     -0.1250E-01       0.000           1.000           13.00    
     14      1     92    210     -0.8300E-02       0.000           1.000           14.00    
     15      1     84    210     -0.1250E-01       0.000           1.000           15.00    
     16      1     77    211     -0.8300E-02       0.000           1.000           16.00    
     17      1     72    212     -0.9700E-02       0.000           1.000           17.00    
     18      1     67    213     -0.6900E-02       0.000           1.000           18.00    
     19      1     63    208     -0.1530E-01       0.000           1.000           19.00    
     20      1     59    214     -0.4200E-02       0.000           1.000           20.00    
     21      1     52    213     -0.1530E-01       0.000           1.000           21.00    
     22      1     44    213     -0.6900E-02       0.000           1.000           22.00    
     23      1    124    196     -0.5600E-02       0.000           1.000           23.00    
     24      1    112    203     -0.4200E-02       0.000           1.000           24.00    
     25      1     97    204     -0.6900E-02       0.000           1.000           25.00    
     26      1    170    197     -0.9700E-02       0.000           1.000           26.00    
     27      1    176    196     -0.1530E-01       0.000           1.000           27.00    
     28      1    143    201     -0.4200E-02       0.000           1.000           28.00    
     29      1    135    201     -0.4200E-02       0.000           1.000           29.00    
     30      1    127    201     -0.4200E-02       0.000           1.000           30.00    
     31      1    105    207     -0.1670E-01       0.000           1.000           31.00    
     32      1     94    208     -0.1530E-01       0.000           1.000           32.00    
     33      1     88    208     -0.5600E-02       0.000           1.000           33.00    
     34      1     81    213     -0.6900E-02       0.000           1.000           34.00    
     35      1     68    208     -0.1810E-01       0.000           1.000           35.00    
     36      1     61    216     -0.2780E-01       0.000           1.000           36.00    
     37      1     55    210     -0.9700E-02       0.000           1.000           37.00    
     38      1     47    216     -0.2780E-01       0.000           1.000           38.00    
     39      1     39    213     -0.2800E-02       0.000           1.000           39.00    
     40      1     38    218     -0.1670E-01       0.000           1.000           40.00    
     41      1     80    208     -0.2800E-02       0.000           1.000           41.00    
     42      1    118    201     -0.5600E-02       0.000           1.000           42.00    
     43      1    134    197     -0.4200E-02       0.000           1.000           43.00    
     44      1    158    200     -0.6900E-02       0.000           1.000           44.00    
     45      1    165    198     -0.9700E-02       0.000           1.000           45.00    
     46      1    169    194     -0.2800E-02       0.000           1.000           46.00    
     47      1    181    197     -0.6900E-02       0.000           1.000           47.00    
     48      1    174    193     -0.1400E-02       0.000           1.000           48.00    
     49      1     65    217     -0.8300E-02       0.000           1.000           49.00    
     50      1     61    211     -0.1400E-02       0.000           1.000           50.00    
     51      1     56    215     -0.4200E-02       0.000           1.000           51.00    
     52      1     39    216     -0.8300E-02       0.000           1.000           52.00    
     53      1     32    218     -0.2360E-01       0.000           1.000           53.00    
     54      1     73    208     -0.8300E-02       0.000           1.000           54.00    
     55      1     76    213     -0.1400E-02       0.000           1.000           55.00    
     56      1     83    206     -0.1810E-01       0.000           1.000           56.00    
     57      1     88    211     -0.4200E-02       0.000           1.000           57.00    
     58      1     48    212     -0.1400E-02       0.000           1.000           58.00    
     59      1    103    205     -0.2780E-01       0.000           1.000           59.00    
     60      1     91    205     -0.8300E-02       0.000           1.000           60.00    
     61      1    106    202     -0.1530E-01       0.000           1.000           61.00    
     62      1    114    206     -0.1400E-02       0.000           1.000           62.00    
     63      1    116    198     -0.8300E-02       0.000           1.000           63.00    
     64      1    127    198     -0.8300E-02       0.000           1.000           64.00    
     65      1    131    203     -0.4200E-02       0.000           1.000           65.00    
     66      1    138    195     -0.1400E-02       0.000           1.000           66.00    
     67      1    152    200     -0.1390E-01       0.000           1.000           67.00    
     68      1    145    193     -0.8300E-02       0.000           1.000           68.00    
     69      1    130    195     -0.2220E-01       0.000           1.000           69.00    
     70      1    162    197     -0.8300E-02       0.000           1.000           70.00    
     71      1    166    190     -0.4200E-02       0.000           1.000           71.00    
     72      1     86    204     -0.2360E-01       0.000           1.000           72.00    
     73      1    173    198     -0.1400E-02       0.000           1.000           73.00    
     74      1    170    190     -0.8300E-02       0.000           1.000           74.00    
     75      1    180    193     -0.8300E-02       0.000           1.000           75.00    
     76      1    149    194     -0.2080E-01       0.000           1.000           76.00    
     77      1     35    218     -0.1400E-02       0.000           1.000           77.00    
     78      1     34    215     -0.1400E-02       0.000           1.000           78.00    
     79      1     43    215     -0.1530E-01       0.000           1.000           79.00    
     80      1     52    217     -0.8300E-02       0.000           1.000           80.00    
     81      1     59    217     -0.1530E-01       0.000           1.000           81.00    
     82      1     57    211     -0.4200E-02       0.000           1.000           82.00    
     83      1     63    213     -0.1530E-01       0.000           1.000           83.00    
     84      1     42    211     -0.8300E-02       0.000           1.000           84.00    
     85      1     35    214     -0.5600E-02       0.000           1.000           85.00    
     86      1     51    211     -0.1530E-01       0.000           1.000           86.00    
     87      1     46    209     -0.5600E-02       0.000           1.000           87.00    
     88      1     65    211     -0.4200E-02       0.000           1.000           88.00    
     89      1     54    213     -0.5600E-02       0.000           1.000           89.00    
     90      1     53    208     -0.8300E-02       0.000           1.000           90.00    
     91      1     69    216     -0.5600E-02       0.000           1.000           91.00    
     92      1     77    208     -0.2500E-01       0.000           1.000           92.00    
     93      1     78    205     -0.4200E-02       0.000           1.000           93.00    

     93 WELLS



                           RECHARGE
 READING ON UNIT   13 WITH FORMAT: (FREE)              

 CHD NO.   LAYER   ROW   COL    START HEAD        END HEAD         
 ------------------------------------------------------------------
      1      1      8    222       0.000           0.000    
      2      1      9    222       0.000           0.000    
      3      1     10    222       0.000           0.000    
      4      1     11    222       0.000           0.000    
      5      1     12    222       0.000           0.000    
      6      1     15    221       0.000           0.000    
      7      1     16    221       0.000           0.000    
      8      1     17    221       0.000           0.000    
      9      1     18    221       0.000           0.000    
     10      1     19    221       0.000           0.000    
     11      1     24    220       0.000           0.000    
     12      1     25    220       0.000           0.000    
     13      1     26    220       0.000           0.000    
     14      1     27    220       0.000           0.000    
     15      1     28    220       0.000           0.000    
     16      1     29    220       0.000           0.000    
     17      1     37    219       0.000           0.000    
     18      1     38    219       0.000           0.000    
     19      1     39    219       0.000           0.000    
     20      1     40    219       0.000           0.000    
     21      1     41    218       0.000           0.000    
     22      1     42    218       0.000           0.000    
     23      1     43    218       0.000           0.000    
     24      1     46    217       0.000           0.000    
     25      1     47    217       0.000           0.000    
     26      1     48    217       0.000           0.000    
     27      1     50    218       0.000           0.000    
     28      1     51    218       0.000           0.000    
     29      1     56    219       0.000           0.000    
     30      1     57    219       0.000           0.000    
     31      1     58    219       0.000           0.000    
     32      1     64    218       0.000           0.000    
     33      1     65    218       0.000           0.000    
     34      1     66    218       0.000           0.000    
     35      1     67    218       0.000           0.000    
     36      1     69    217       0.000           0.000    
     37      1     70    217       0.000           0.000    
     38      1     72    216       0.000           0.000    
     39      1     73    216       0.000           0.000    
     40      1     78    215       0.000           0.000    
     41      1     79    215       0.000           0.000    
     42      1     80    215       0.000           0.000    
     43      1     81    215       0.000           0.000    
     44      1     84    214       0.000           0.000    
     45      1     85    214       0.000           0.000    
     46      1     86    214       0.000           0.000    
     47      1     87    214       0.000           0.000    
     48      1     90    213       0.000           0.000    
     49      1     91    213       0.000           0.000    
     50      1     92    213       0.000           0.000    
     51      1     93    213       0.000           0.000    
     52      1     96    212       0.000           0.000    
     53      1     97    212       0.000           0.000    
     54      1     98    212       0.000           0.000    
     55      1    101    211       0.000           0.000    
     56      1    102    211       0.000           0.000    
     57      1    104    210       0.000           0.000    
     58      1    105    210       0.000           0.000    
     59      1    107    209       0.000           0.000    
     60      1    108    209       0.000           0.000    
     61      1    109    209       0.000           0.000    
     62      1    111    208       0.000           0.000    
     63      1    112    208       0.000           0.000    
     64      1    113    208       0.000           0.000    
     65      1    115    207       0.000           0.000    
     66      1    116    207       0.000           0.000    
     67      1    117    207       0.000           0.000    
     68      1    120    206       0.000           0.000    
     69      1    122    205       0.000           0.000    
     70      1    123    205       0.000           0.000    
     71      1    124    205       0.000           0.000    
     72      1    131    204       0.000           0.000    
     73      1    132    204       0.000           0.000    
     74      1    133    204       0.000           0.000    
     75      1    134    204       0.000           0.000    
     76      1    135    204       0.000           0.000    
     77      1    136    204       0.000           0.000    
     78      1    137    204       0.000           0.000    
     79      1    141    203       0.000           0.000    
     80      1    142    203       0.000           0.000    
     81      1    143    203       0.000           0.000    
     82      1    148    202       0.000           0.000    
     83      1    149    202       0.000           0.000    
     84      1    150    202       0.000           0.000    
     85      1    151    202       0.000           0.000    
     86      1    152    202       0.000           0.000    
     87      1    153    202       0.000           0.000    
     88      1    164    201       0.000           0.000    
     89      1    165    201       0.000           0.000    
     90      1    166    201       0.000           0.000    
     91      1    167    201       0.000           0.000    
     92      1    168    201       0.000           0.000    
     93      1    169    201       0.000           0.000    
     94      1    173    200       0.000           0.000    
     95      1    174    200       0.000           0.000    
     96      1    175    200       0.000           0.000    
     97      1    179    199       0.000           0.000    
     98      1    180    199       0.000           0.000    
     99      1    181    199       0.000           0.000    
    100      1    182    199       0.000           0.000    
    101      1    189    198       0.000           0.000    
    102      1    190    198       0.000           0.000    
    103      1    191    198       0.000           0.000    
    104      1    192    198       0.000           0.000    
    105      1    193    198       0.000           0.000    
    106      1    194    198       0.000           0.000    
    107      1    198    197       0.000           0.000    
    108      1    199    197       0.000           0.000    
    109      1    200    197       0.000           0.000    
    110      1    203    197       0.000           0.000    
    111      1    204    197       0.000           0.000    
    112      1    205    197       0.000           0.000    
    113      1    206    197       0.000           0.000    
    114      1    207    197       0.000           0.000    
    115      1    208    197       0.000           0.000    


    115 TIME-VARIANT SPECIFIED-HEAD CELLS

 SOLVING FOR HEAD 

 OUTPUT CONTROL FOR STRESS PERIOD    2   TIME STEP   1
    PRINT BUDGET
    SAVE HEAD FOR ALL LAYERS
    SAVE BUDGET
 UBDSV1 SAVING "         STORAGE" ON UNIT  40 AT TIME STEP  1, STRESS PERIOD   2
 UBDSV2 SAVING "   CONSTANT HEAD" ON UNIT  40 AT TIME STEP  1, STRESS PERIOD   2
 UBDSV1 SAVING "FLOW RIGHT FACE " ON UNIT  40 AT TIME STEP  1, STRESS PERIOD   2
 UBDSV1 SAVING "FLOW FRONT FACE " ON UNIT  40 AT TIME STEP  1, STRESS PERIOD   2
 UBDSV4 SAVING "           WELLS" ON UNIT  40 AT TIME STEP  1, STRESS PERIOD   2
 UBDSV3 SAVING "        RECHARGE" ON UNIT  40 AT TIME STEP  1, STRESS PERIOD   2

 HEAD WILL BE SAVED ON UNIT    3 AT END OF TIME STEP   1, STRESS PERIOD    2
1
  VOLUMETRIC BUDGET FOR ENTIRE MODEL AT END OF TIME STEP  1 IN STRESS PERIOD   2
  ------------------------------------------------------------------------------

     CUMULATIVE VOLUMES      L**3       RATES FOR THIS TIME STEP      L**3/T
     ------------------                 ------------------------

           IN:                                      IN:
           ---                                      ---
             STORAGE =       47168.1289               STORAGE =           0.7799
       CONSTANT HEAD =         497.0822         CONSTANT HEAD =       8.2190E-03
               WELLS =           0.0000                 WELLS =           0.0000
            RECHARGE =      272916.1562              RECHARGE =           0.4102

            TOTAL IN =      320581.3750              TOTAL IN =           1.1983

          OUT:                                     OUT:
          ----                                     ----
             STORAGE =           1.7138               STORAGE =       2.8337E-05
       CONSTANT HEAD =      268932.1250         CONSTANT HEAD =           0.3423
               WELLS =       51764.8320                 WELLS =           0.8559
            RECHARGE =           0.0000              RECHARGE =           0.0000

           TOTAL OUT =      320698.6875             TOTAL OUT =           1.1982

            IN - OUT =        -117.3125              IN - OUT =       1.1897E-04

 PERCENT DISCREPANCY =          -0.04     PERCENT DISCREPANCY =           0.01






          TIME SUMMARY AT END OF TIME STEP   1 IN STRESS PERIOD    2
                    SECONDS     MINUTES      HOURS       DAYS        YEARS
                    -----------------------------------------------------------
   TIME STEP LENGTH  60480.      1008.0      16.800     0.70000     1.91650E-03
 STRESS PERIOD TIME  60480.      1008.0      16.800     0.70000     1.91650E-03
         TOTAL TIME 6.65280E+05  11088.      184.80      7.7000     2.10815E-02
1

 SOLVING FOR HEAD 

 OUTPUT CONTROL FOR STRESS PERIOD    2   TIME STEP   2
    PRINT BUDGET
    SAVE HEAD FOR ALL LAYERS
    SAVE BUDGET
 UBDSV1 SAVING "         STORAGE" ON UNIT  40 AT TIME STEP  2, STRESS PERIOD   2
 UBDSV2 SAVING "   CONSTANT HEAD" ON UNIT  40 AT TIME STEP  2, STRESS PERIOD   2
 UBDSV1 SAVING "FLOW RIGHT FACE " ON UNIT  40 AT TIME STEP  2, STRESS PERIOD   2
 UBDSV1 SAVING "FLOW FRONT FACE " ON UNIT  40 AT TIME STEP  2, STRESS PERIOD   2
 UBDSV4 SAVING "           WELLS" ON UNIT  40 AT TIME STEP  2, STRESS PERIOD   2
 UBDSV3 SAVING "        RECHARGE" ON UNIT  40 AT TIME STEP  2, STRESS PERIOD   2

 HEAD WILL BE SAVED ON UNIT    3 AT END OF TIME STEP   2, STRESS PERIOD    2
1
  VOLUMETRIC BUDGET FOR ENTIRE MODEL AT END OF TIME STEP  2 IN STRESS PERIOD   2
  ------------------------------------------------------------------------------

     CUMULATIVE VOLUMES      L**3       RATES FOR THIS TIME STEP      L**3/T
     ------------------                 ------------------------

           IN:                                      IN:
           ---                                      ---
             STORAGE =       91261.7188               STORAGE =           0.7291
       CONSTANT HEAD =        1329.0128         CONSTANT HEAD =       1.3755E-02
               WELLS =           0.0000                 WELLS =           0.0000
            RECHARGE =      297726.7188              RECHARGE =           0.4102

            TOTAL IN =      390317.4375              TOTAL IN =           1.1530

          OUT:                                     OUT:
          ----                                     ----
             STORAGE =           2.8152               STORAGE =       1.8210E-05
       CONSTANT HEAD =      286908.4062         CONSTANT HEAD =           0.2972
               WELLS =      103529.6641                 WELLS =           0.8559
            RECHARGE =           0.0000              RECHARGE =           0.0000

           TOTAL OUT =      390440.8750             TOTAL OUT =           1.1531

            IN - OUT =        -123.4375              IN - OUT =      -1.0133E-04

 PERCENT DISCREPANCY =          -0.03     PERCENT DISCREPANCY =          -0.01






          TIME SUMMARY AT END OF TIME STEP   2 IN STRESS PERIOD    2
                    SECONDS     MINUTES      HOURS       DAYS        YEARS
                    -----------------------------------------------------------
   TIME STEP LENGTH  60480.      1008.0      16.800     0.70000     1.91650E-03
 STRESS PERIOD TIME 1.20960E+05  2016.0      33.600      1.4000     3.83299E-03
         TOTAL TIME 7.25760E+05  12096.      201.60      8.4000     2.29979E-02
1

 SOLVING FOR HEAD 

 OUTPUT CONTROL FOR STRESS PERIOD    2   TIME STEP   3
    PRINT BUDGET
    SAVE HEAD FOR ALL LAYERS
    SAVE BUDGET
 UBDSV1 SAVING "         STORAGE" ON UNIT  40 AT TIME STEP  3, STRESS PERIOD   2
 UBDSV2 SAVING "   CONSTANT HEAD" ON UNIT  40 AT TIME STEP  3, STRESS PERIOD   2
 UBDSV1 SAVING "FLOW RIGHT FACE " ON UNIT  40 AT TIME STEP  3, STRESS PERIOD   2
 UBDSV1 SAVING "FLOW FRONT FACE " ON UNIT  40 AT TIME STEP  3, STRESS PERIOD   2
 UBDSV4 SAVING "           WELLS" ON UNIT  40 AT TIME STEP  3, STRESS PERIOD   2
 UBDSV3 SAVING "        RECHARGE" ON UNIT  40 AT TIME STEP  3, STRESS PERIOD   2

 HEAD WILL BE SAVED ON UNIT    3 AT END OF TIME STEP   3, STRESS PERIOD    2
1
  VOLUMETRIC BUDGET FOR ENTIRE MODEL AT END OF TIME STEP  3 IN STRESS PERIOD   2
  ------------------------------------------------------------------------------

     CUMULATIVE VOLUMES      L**3       RATES FOR THIS TIME STEP      L**3/T
     ------------------                 ------------------------

           IN:                                      IN:
           ---                                      ---
             STORAGE =      132864.2656               STORAGE =           0.6879
       CONSTANT HEAD =        2517.5991         CONSTANT HEAD =       1.9653E-02
               WELLS =           0.0000                 WELLS =           0.0000
            RECHARGE =      322537.2812              RECHARGE =           0.4102

            TOTAL IN =      457919.1250              TOTAL IN =           1.1178

          OUT:                                     OUT:
          ----                                     ----
             STORAGE =           3.5908               STORAGE =       1.2825E-05
       CONSTANT HEAD =      302746.5312         CONSTANT HEAD =           0.2619
               WELLS =      155294.5000                 WELLS =           0.8559
            RECHARGE =           0.0000              RECHARGE =           0.0000

           TOTAL OUT =      458044.6250             TOTAL OUT =           1.1178

            IN - OUT =        -125.5000              IN - OUT =      -3.3617E-05

 PERCENT DISCREPANCY =          -0.03     PERCENT DISCREPANCY =          -0.00






          TIME SUMMARY AT END OF TIME STEP   3 IN STRESS PERIOD    2
[...]

          OUT:                                     OUT:
          ----                                     ----
             STORAGE =           6.4978               STORAGE =       1.0382E-07
       CONSTANT HEAD =     1177637.7500         CONSTANT HEAD =       1.6949E-02
               WELLS =    26037600.0000                 WELLS =           0.8559
            RECHARGE =           0.0000              RECHARGE =           0.0000

           TOTAL OUT =    27215244.0000             TOTAL OUT =           0.8728

            IN - OUT =      -20700.0000              IN - OUT =      -2.4177E-03

 PERCENT DISCREPANCY =          -0.08     PERCENT DISCREPANCY =          -0.28






          TIME SUMMARY AT END OF TIME STEP   3 IN STRESS PERIOD   52
                    SECONDS     MINUTES      HOURS       DAYS        YEARS
                    -----------------------------------------------------------
   TIME STEP LENGTH  60480.      1008.0      16.800     0.70000     1.91650E-03
 STRESS PERIOD TIME 1.81440E+05  3024.0      50.400      2.1000     5.74949E-03
         TOTAL TIME 3.10262E+07 5.17104E+05  8618.4      359.10     0.98316    
1

 SOLVING FOR HEAD 

 OUTPUT CONTROL FOR STRESS PERIOD   52   TIME STEP   4
    PRINT BUDGET
    SAVE HEAD FOR ALL LAYERS
    SAVE BUDGET
 UBDSV1 SAVING "         STORAGE" ON UNIT  40 AT TIME STEP  4, STRESS PERIOD  52
 UBDSV2 SAVING "   CONSTANT HEAD" ON UNIT  40 AT TIME STEP  4, STRESS PERIOD  52
 UBDSV1 SAVING "FLOW RIGHT FACE " ON UNIT  40 AT TIME STEP  4, STRESS PERIOD  52
 UBDSV1 SAVING "FLOW FRONT FACE " ON UNIT  40 AT TIME STEP  4, STRESS PERIOD  52
 UBDSV4 SAVING "           WELLS" ON UNIT  40 AT TIME STEP  4, STRESS PERIOD  52
 UBDSV3 SAVING "        RECHARGE" ON UNIT  40 AT TIME STEP  4, STRESS PERIOD  52

 HEAD WILL BE SAVED ON UNIT    3 AT END OF TIME STEP   4, STRESS PERIOD   52
1
  VOLUMETRIC BUDGET FOR ENTIRE MODEL AT END OF TIME STEP  4 IN STRESS PERIOD  52
  ------------------------------------------------------------------------------

     CUMULATIVE VOLUMES      L**3       RATES FOR THIS TIME STEP      L**3/T
     ------------------                 ------------------------

           IN:                                      IN:
           ---                                      ---
             STORAGE =     3152644.5000               STORAGE =       1.6870E-02
       CONSTANT HEAD =    11341836.0000         CONSTANT HEAD =           0.4430
               WELLS =           0.0000                 WELLS =           0.0000
            RECHARGE =    12752688.0000              RECHARGE =           0.4102

            TOTAL IN =    27247168.0000              TOTAL IN =           0.8701

          OUT:                                     OUT:
          ----                                     ----
             STORAGE =           6.4993               STORAGE =       2.4782E-08
       CONSTANT HEAD =     1178662.2500         CONSTANT HEAD =       1.6939E-02
               WELLS =    26089364.0000                 WELLS =           0.8559
            RECHARGE =           0.0000              RECHARGE =           0.0000

           TOTAL OUT =    27268032.0000             TOTAL OUT =           0.8728

            IN - OUT =      -20864.0000              IN - OUT =      -2.7292E-03

 PERCENT DISCREPANCY =          -0.08     PERCENT DISCREPANCY =          -0.31






          TIME SUMMARY AT END OF TIME STEP   4 IN STRESS PERIOD   52
                    SECONDS     MINUTES      HOURS       DAYS        YEARS
                    -----------------------------------------------------------
   TIME STEP LENGTH  60480.      1008.0      16.800     0.70000     1.91650E-03
 STRESS PERIOD TIME 2.41920E+05  4032.0      67.200      2.8000     7.66598E-03
         TOTAL TIME 3.10867E+07 5.18112E+05  8635.2      359.80     0.98508    
1

 SOLVING FOR HEAD 

 OUTPUT CONTROL FOR STRESS PERIOD   52   TIME STEP   5
    PRINT BUDGET
    SAVE HEAD FOR ALL LAYERS
    SAVE BUDGET
 UBDSV1 SAVING "         STORAGE" ON UNIT  40 AT TIME STEP  5, STRESS PERIOD  52
 UBDSV2 SAVING "   CONSTANT HEAD" ON UNIT  40 AT TIME STEP  5, STRESS PERIOD  52
 UBDSV1 SAVING "FLOW RIGHT FACE " ON UNIT  40 AT TIME STEP  5, STRESS PERIOD  52
 UBDSV1 SAVING "FLOW FRONT FACE " ON UNIT  40 AT TIME STEP  5, STRESS PERIOD  52
 UBDSV4 SAVING "           WELLS" ON UNIT  40 AT TIME STEP  5, STRESS PERIOD  52
 UBDSV3 SAVING "        RECHARGE" ON UNIT  40 AT TIME STEP  5, STRESS PERIOD  52

 HEAD WILL BE SAVED ON UNIT    3 AT END OF TIME STEP   5, STRESS PERIOD   52
1
  VOLUMETRIC BUDGET FOR ENTIRE MODEL AT END OF TIME STEP  5 IN STRESS PERIOD  52
  ------------------------------------------------------------------------------

     CUMULATIVE VOLUMES      L**3       RATES FOR THIS TIME STEP      L**3/T
     ------------------                 ------------------------

           IN:                                      IN:
           ---                                      ---
             STORAGE =     3153682.7500               STORAGE =       1.7168E-02
       CONSTANT HEAD =    11368633.0000         CONSTANT HEAD =           0.4431
               WELLS =           0.0000                 WELLS =           0.0000
            RECHARGE =    12777499.0000              RECHARGE =           0.4102

            TOTAL IN =    27299816.0000              TOTAL IN =           0.8705

          OUT:                                     OUT:
          ----                                     ----
             STORAGE =           6.5008               STORAGE =       2.4593E-08
       CONSTANT HEAD =     1179686.0000         CONSTANT HEAD =       1.6928E-02
               WELLS =    26141128.0000                 WELLS =           0.8559
            RECHARGE =           0.0000              RECHARGE =           0.0000

           TOTAL OUT =    27320820.0000             TOTAL OUT =           0.8728

            IN - OUT =      -21004.0000              IN - OUT =      -2.3595E-03

 PERCENT DISCREPANCY =          -0.08     PERCENT DISCREPANCY =          -0.27






          TIME SUMMARY AT END OF TIME STEP   5 IN STRESS PERIOD   52
                    SECONDS     MINUTES      HOURS       DAYS        YEARS
                    -----------------------------------------------------------
   TIME STEP LENGTH  60480.      1008.0      16.800     0.70000     1.91650E-03
 STRESS PERIOD TIME 3.02400E+05  5040.0      84.000      3.5000     9.58248E-03
         TOTAL TIME 3.11472E+07 5.19120E+05  8652.0      360.50     0.98700    
1

 SOLVING FOR HEAD 

 OUTPUT CONTROL FOR STRESS PERIOD   52   TIME STEP   6
    PRINT BUDGET
    SAVE HEAD FOR ALL LAYERS
    SAVE BUDGET
 UBDSV1 SAVING "         STORAGE" ON UNIT  40 AT TIME STEP  6, STRESS PERIOD  52
 UBDSV2 SAVING "   CONSTANT HEAD" ON UNIT  40 AT TIME STEP  6, STRESS PERIOD  52
 UBDSV1 SAVING "FLOW RIGHT FACE " ON UNIT  40 AT TIME STEP  6, STRESS PERIOD  52
 UBDSV1 SAVING "FLOW FRONT FACE " ON UNIT  40 AT TIME STEP  6, STRESS PERIOD  52
 UBDSV4 SAVING "           WELLS" ON UNIT  40 AT TIME STEP  6, STRESS PERIOD  52
 UBDSV3 SAVING "        RECHARGE" ON UNIT  40 AT TIME STEP  6, STRESS PERIOD  52

 HEAD WILL BE SAVED ON UNIT    3 AT END OF TIME STEP   6, STRESS PERIOD   52
1
  VOLUMETRIC BUDGET FOR ENTIRE MODEL AT END OF TIME STEP  6 IN STRESS PERIOD  52
  ------------------------------------------------------------------------------

     CUMULATIVE VOLUMES      L**3       RATES FOR THIS TIME STEP      L**3/T
     ------------------                 ------------------------

           IN:                                      IN:
           ---                                      ---
             STORAGE =     3154714.0000               STORAGE =       1.7050E-02
       CONSTANT HEAD =    11395434.0000         CONSTANT HEAD =           0.4431
               WELLS =           0.0000                 WELLS =           0.0000
            RECHARGE =    12802310.0000              RECHARGE =           0.4102

            TOTAL IN =    27352458.0000              TOTAL IN =           0.8704

          OUT:                                     OUT:
          ----                                     ----
             STORAGE =           6.5059               STORAGE =       8.5129E-08
       CONSTANT HEAD =     1180709.1250         CONSTANT HEAD =       1.6918E-02
               WELLS =    26192892.0000                 WELLS =           0.8559
            RECHARGE =           0.0000              RECHARGE =           0.0000

           TOTAL OUT =    27373608.0000             TOTAL OUT =           0.8728

            IN - OUT =      -21150.0000              IN - OUT =      -2.4065E-03

 PERCENT DISCREPANCY =          -0.08     PERCENT DISCREPANCY =          -0.28






          TIME SUMMARY AT END OF TIME STEP   6 IN STRESS PERIOD   52
                    SECONDS     MINUTES      HOURS       DAYS        YEARS
                    -----------------------------------------------------------
   TIME STEP LENGTH  60480.      1008.0      16.800     0.70000     1.91650E-03
 STRESS PERIOD TIME 3.62880E+05  6048.0      100.80      4.2000     1.14990E-02
         TOTAL TIME 3.12077E+07 5.20128E+05  8668.8      361.20     0.98891    
1

 SOLVING FOR HEAD 

 OUTPUT CONTROL FOR STRESS PERIOD   52   TIME STEP   7
    PRINT BUDGET
    SAVE HEAD FOR ALL LAYERS
    SAVE BUDGET
 UBDSV1 SAVING "         STORAGE" ON UNIT  40 AT TIME STEP  7, STRESS PERIOD  52
 UBDSV2 SAVING "   CONSTANT HEAD" ON UNIT  40 AT TIME STEP  7, STRESS PERIOD  52
 UBDSV1 SAVING "FLOW RIGHT FACE " ON UNIT  40 AT TIME STEP  7, STRESS PERIOD  52
 UBDSV1 SAVING "FLOW FRONT FACE " ON UNIT  40 AT TIME STEP  7, STRESS PERIOD  52
 UBDSV4 SAVING "           WELLS" ON UNIT  40 AT TIME STEP  7, STRESS PERIOD  52
 UBDSV3 SAVING "        RECHARGE" ON UNIT  40 AT TIME STEP  7, STRESS PERIOD  52

 HEAD WILL BE SAVED ON UNIT    3 AT END OF TIME STEP   7, STRESS PERIOD   52
1
  VOLUMETRIC BUDGET FOR ENTIRE MODEL AT END OF TIME STEP  7 IN STRESS PERIOD  52
  ------------------------------------------------------------------------------

     CUMULATIVE VOLUMES      L**3       RATES FOR THIS TIME STEP      L**3/T
     ------------------                 ------------------------

           IN:                                      IN:
           ---                                      ---
             STORAGE =     3155714.0000               STORAGE =       1.6533E-02
       CONSTANT HEAD =    11422238.0000         CONSTANT HEAD =           0.4432
               WELLS =           0.0000                 WELLS =           0.0000
            RECHARGE =    12827121.0000              RECHARGE =           0.4102

            TOTAL IN =    27405072.0000              TOTAL IN =           0.8700

          OUT:                                     OUT:
          ----                                     ----
             STORAGE =           6.5106               STORAGE =       7.6256E-08
       CONSTANT HEAD =     1181731.7500         CONSTANT HEAD =       1.6907E-02
               WELLS =    26244656.0000                 WELLS =           0.8559
            RECHARGE =           0.0000              RECHARGE =           0.0000

           TOTAL OUT =    27426394.0000             TOTAL OUT =           0.8728

            IN - OUT =      -21322.0000              IN - OUT =      -2.8538E-03

 PERCENT DISCREPANCY =          -0.08     PERCENT DISCREPANCY =          -0.33






          TIME SUMMARY AT END OF TIME STEP   7 IN STRESS PERIOD   52
                    SECONDS     MINUTES      HOURS       DAYS        YEARS
                    -----------------------------------------------------------
   TIME STEP LENGTH  60480.      1008.0      16.800     0.70000     1.91650E-03
 STRESS PERIOD TIME 4.23360E+05  7056.0      117.60      4.9000     1.34155E-02
         TOTAL TIME 3.12682E+07 5.21136E+05  8685.6      361.90     0.99083    
1

 SOLVING FOR HEAD 

 OUTPUT CONTROL FOR STRESS PERIOD   52   TIME STEP   8
    PRINT BUDGET
    SAVE HEAD FOR ALL LAYERS
    SAVE BUDGET
 UBDSV1 SAVING "         STORAGE" ON UNIT  40 AT TIME STEP  8, STRESS PERIOD  52
 UBDSV2 SAVING "   CONSTANT HEAD" ON UNIT  40 AT TIME STEP  8, STRESS PERIOD  52
 UBDSV1 SAVING "FLOW RIGHT FACE " ON UNIT  40 AT TIME STEP  8, STRESS PERIOD  52
 UBDSV1 SAVING "FLOW FRONT FACE " ON UNIT  40 AT TIME STEP  8, STRESS PERIOD  52
 UBDSV4 SAVING "           WELLS" ON UNIT  40 AT TIME STEP  8, STRESS PERIOD  52
 UBDSV3 SAVING "        RECHARGE" ON UNIT  40 AT TIME STEP  8, STRESS PERIOD  52

 HEAD WILL BE SAVED ON UNIT    3 AT END OF TIME STEP   8, STRESS PERIOD   52
1
  VOLUMETRIC BUDGET FOR ENTIRE MODEL AT END OF TIME STEP  8 IN STRESS PERIOD  52
  ------------------------------------------------------------------------------

     CUMULATIVE VOLUMES      L**3       RATES FOR THIS TIME STEP      L**3/T
     ------------------                 ------------------------

           IN:                                      IN:
           ---                                      ---
             STORAGE =     3156764.0000               STORAGE =       1.7362E-02
       CONSTANT HEAD =    11449046.0000         CONSTANT HEAD =           0.4433
               WELLS =           0.0000                 WELLS =           0.0000
            RECHARGE =    12851932.0000              RECHARGE =           0.4102

            TOTAL IN =    27457742.0000              TOTAL IN =           0.8708

          OUT:                                     OUT:
          ----                                     ----
             STORAGE =           6.5107               STORAGE =       2.5611E-09
       CONSTANT HEAD =     1182753.6250         CONSTANT HEAD =       1.6897E-02
               WELLS =    26296420.0000                 WELLS =           0.8559
            RECHARGE =           0.0000              RECHARGE =           0.0000

           TOTAL OUT =    27479180.0000             TOTAL OUT =           0.8728

            IN - OUT =      -21438.0000              IN - OUT =      -1.9528E-03

 PERCENT DISCREPANCY =          -0.08     PERCENT DISCREPANCY =          -0.22






          TIME SUMMARY AT END OF TIME STEP   8 IN STRESS PERIOD   52
                    SECONDS     MINUTES      HOURS       DAYS        YEARS
                    -----------------------------------------------------------
   TIME STEP LENGTH  60480.      1008.0      16.800     0.70000     1.91650E-03
 STRESS PERIOD TIME 4.83840E+05  8064.0      134.40      5.6000     1.53320E-02
         TOTAL TIME 3.13286E+07 5.22144E+05  8702.4      362.60     0.99274    
1

 SOLVING FOR HEAD 

 OUTPUT CONTROL FOR STRESS PERIOD   52   TIME STEP   9
    PRINT BUDGET
    SAVE HEAD FOR ALL LAYERS
    SAVE BUDGET
 UBDSV1 SAVING "         STORAGE" ON UNIT  40 AT TIME STEP  9, STRESS PERIOD  52
 UBDSV2 SAVING "   CONSTANT HEAD" ON UNIT  40 AT TIME STEP  9, STRESS PERIOD  52
 UBDSV1 SAVING "FLOW RIGHT FACE " ON UNIT  40 AT TIME STEP  9, STRESS PERIOD  52
 UBDSV1 SAVING "FLOW FRONT FACE " ON UNIT  40 AT TIME STEP  9, STRESS PERIOD  52
 UBDSV4 SAVING "           WELLS" ON UNIT  40 AT TIME STEP  9, STRESS PERIOD  52
 UBDSV3 SAVING "        RECHARGE" ON UNIT  40 AT TIME STEP  9, STRESS PERIOD  52

 HEAD WILL BE SAVED ON UNIT    3 AT END OF TIME STEP   9, STRESS PERIOD   52
1
  VOLUMETRIC BUDGET FOR ENTIRE MODEL AT END OF TIME STEP  9 IN STRESS PERIOD  52
  ------------------------------------------------------------------------------

     CUMULATIVE VOLUMES      L**3       RATES FOR THIS TIME STEP      L**3/T
     ------------------                 ------------------------

           IN:                                      IN:
           ---                                      ---
             STORAGE =     3157829.7500               STORAGE =       1.7623E-02
       CONSTANT HEAD =    11475858.0000         CONSTANT HEAD =           0.4433
               WELLS =           0.0000                 WELLS =           0.0000
            RECHARGE =    12876743.0000              RECHARGE =           0.4102

            TOTAL IN =    27510432.0000              TOTAL IN =           0.8712

          OUT:                                     OUT:
          ----                                     ----
             STORAGE =           6.5156               STORAGE =       8.0210E-08
       CONSTANT HEAD =     1183774.8750         CONSTANT HEAD =       1.6886E-02
               WELLS =    26348184.0000                 WELLS =           0.8559
            RECHARGE =           0.0000              RECHARGE =           0.0000

           TOTAL OUT =    27531966.0000             TOTAL OUT =           0.8728

            IN - OUT =      -21534.0000              IN - OUT =      -1.6181E-03

 PERCENT DISCREPANCY =          -0.08     PERCENT DISCREPANCY =          -0.19






          TIME SUMMARY AT END OF TIME STEP   9 IN STRESS PERIOD   52
                    SECONDS     MINUTES      HOURS       DAYS        YEARS
                    -----------------------------------------------------------
   TIME STEP LENGTH  60480.      1008.0      16.800     0.70000     1.91650E-03
 STRESS PERIOD TIME 5.44320E+05  9072.0      151.20      6.3000     1.72485E-02
         TOTAL TIME 3.13891E+07 5.23152E+05  8719.2      363.30     0.99466    
1

 SOLVING FOR HEAD 

 OUTPUT CONTROL FOR STRESS PERIOD   52   TIME STEP  10
    PRINT BUDGET
    SAVE HEAD FOR ALL LAYERS
    SAVE BUDGET
 UBDSV1 SAVING "         STORAGE" ON UNIT  40 AT TIME STEP 10, STRESS PERIOD  52
 UBDSV2 SAVING "   CONSTANT HEAD" ON UNIT  40 AT TIME STEP 10, STRESS PERIOD  52
 UBDSV1 SAVING "FLOW RIGHT FACE " ON UNIT  40 AT TIME STEP 10, STRESS PERIOD  52
 UBDSV1 SAVING "FLOW FRONT FACE " ON UNIT  40 AT TIME STEP 10, STRESS PERIOD  52
 UBDSV4 SAVING "           WELLS" ON UNIT  40 AT TIME STEP 10, STRESS PERIOD  52
 UBDSV3 SAVING "        RECHARGE" ON UNIT  40 AT TIME STEP 10, STRESS PERIOD  52

 HEAD WILL BE SAVED ON UNIT    3 AT END OF TIME STEP  10, STRESS PERIOD   52
1
  VOLUMETRIC BUDGET FOR ENTIRE MODEL AT END OF TIME STEP 10 IN STRESS PERIOD  52
  ------------------------------------------------------------------------------

     CUMULATIVE VOLUMES      L**3       RATES FOR THIS TIME STEP      L**3/T
     ------------------                 ------------------------

           IN:                                      IN:
           ---                                      ---
             STORAGE =     3158856.2500               STORAGE =       1.6973E-02
       CONSTANT HEAD =    11502673.0000         CONSTANT HEAD =           0.4434
               WELLS =           0.0000                 WELLS =           0.0000
            RECHARGE =    12901554.0000              RECHARGE =           0.4102

            TOTAL IN =    27563084.0000              TOTAL IN =           0.8706

          OUT:                                     OUT:
          ----                                     ----
             STORAGE =           6.5168               STORAGE =       2.1209E-08
       CONSTANT HEAD =     1184795.5000         CONSTANT HEAD =       1.6875E-02
               WELLS =    26399948.0000                 WELLS =           0.8559
            RECHARGE =           0.0000              RECHARGE =           0.0000

           TOTAL OUT =    27584750.0000             TOTAL OUT =           0.8728

            IN - OUT =      -21666.0000              IN - OUT =      -2.1968E-03

 PERCENT DISCREPANCY =          -0.08     PERCENT DISCREPANCY =          -0.25






          TIME SUMMARY AT END OF TIME STEP  10 IN STRESS PERIOD   52
                    SECONDS     MINUTES      HOURS       DAYS        YEARS
                    -----------------------------------------------------------
   TIME STEP LENGTH  60480.      1008.0      16.800     0.70000     1.91650E-03
 STRESS PERIOD TIME 6.04800E+05  10080.      168.00      7.0000     1.91650E-02
         TOTAL TIME 3.14496E+07 5.24160E+05  8736.0      364.00     0.99658    
1
