                                  MODFLOW-2005     
      U.S. GEOLOGICAL SURVEY MODULAR FINITE-DIFFERENCE GROUND-WATER FLOW MODEL
                            VERSION 1.12.00 2/3/2017

 LIST FILE: UMONS_SmallModel_SteadyState_mf2005.list
                         UNIT    2

 OPENING UMONS_SmallModel_SteadyState_mf2005.dis
 FILE TYPE:DIS   UNIT    9   STATUS:OLD    
 FORMAT:FORMATTED              ACCESS:SEQUENTIAL          

 OPENING UMONS_SmallModel_SteadyState_mf2005.ba6
 FILE TYPE:BAS6   UNIT   10   STATUS:OLD    
 FORMAT:FORMATTED              ACCESS:SEQUENTIAL          

 OPENING UMONS_SmallModel_SteadyState_mf2005.lpf
 FILE TYPE:LPF   UNIT   11   STATUS:OLD    
 FORMAT:FORMATTED              ACCESS:SEQUENTIAL          

 OPENING UMONS_SmallModel_SteadyState_mf2005.oc
 FILE TYPE:OC   UNIT   12   STATUS:OLD    
 FORMAT:FORMATTED              ACCESS:SEQUENTIAL          

 OPENING UMONS_SmallModel_SteadyState_mf2005.rch
 FILE TYPE:RCH   UNIT   13   STATUS:OLD    
 FORMAT:FORMATTED              ACCESS:SEQUENTIAL          

 OPENING UMONS_SmallModel_SteadyState_mf2005.wel
 FILE TYPE:WEL   UNIT   16   STATUS:OLD    
 FORMAT:FORMATTED              ACCESS:SEQUENTIAL          

 OPENING UMONS_SmallModel_SteadyState_mf2005.chd
 FILE TYPE:CHD   UNIT   14   STATUS:OLD    
 FORMAT:FORMATTED              ACCESS:SEQUENTIAL          

 OPENING UMONS_SmallModel_SteadyState_mf2005.pcg
 FILE TYPE:PCG   UNIT   15   STATUS:OLD    
 FORMAT:FORMATTED              ACCESS:SEQUENTIAL          

 OPENING UMONS_SmallModel_SteadyState_mf2005.cbc
 FILE TYPE:DATA(BINARY)   UNIT   40   STATUS:REPLACE
 FORMAT:UNFORMATTED            ACCESS:STREAM              

 OPENING UMONS_SmallModel_SteadyState_mf2005.hds
 FILE TYPE:DATA(BINARY)   UNIT    3   STATUS:REPLACE
 FORMAT:UNFORMATTED            ACCESS:STREAM              

 BAS -- BASIC PACKAGE, VERSION 7, 5/2/2005 INPUT READ FROM UNIT   10

 MODFLOW was compiled using mixed precision
 Precision of REAL variables:           6
 Precision of DOUBLE PRECISION variables:          15

 DISCRETIZATION INPUT DATA READ FROM UNIT    9
 # DIS package for  MODFLOW-2005, generated by Flopy.
    1 LAYERS       221 ROWS       227 COLUMNS
    1 STRESS PERIOD(S) IN SIMULATION
 MODEL TIME UNIT IS SECONDS
 MODEL LENGTH UNIT IS METERS
  Confining bed flag for each layer:
   0



                               DELR
 READING ON UNIT    9 WITH FORMAT: (FREE)              



                               DELC
 READING ON UNIT    9 WITH FORMAT: (FREE)              



           TOP ELEVATION OF LAYER 1
 READING ON UNIT    9 WITH FORMAT: (FREE)              



             MODEL LAYER BOTTOM EL. FOR LAYER   1
 READING ON UNIT    9 WITH FORMAT: (FREE)              


 STRESS PERIOD     LENGTH       TIME STEPS     MULTIPLIER FOR DELT    SS FLAG
 ----------------------------------------------------------------------------
        1         1.000000          1                    1.000         SS

 STEADY-STATE SIMULATION




 # BAS6 package for  MODFLOW-2005, generated by Flopy.                           
 THE FREE FORMAT OPTION HAS BEEN SELECTED



                     BOUNDARY ARRAY FOR LAYER   1
 READING ON UNIT   10 WITH FORMAT: (FREE)              

 AQUIFER HEAD WILL BE SET TO  -999.00     AT ALL NO-FLOW NODES (IBOUND=0).



                       INITIAL HEAD FOR LAYER   1
 READING ON UNIT   10 WITH FORMAT: (FREE)              
 # OC package for  MODFLOW-2005, generated by Flopy.

 OUTPUT CONTROL IS SPECIFIED ONLY AT TIME STEPS FOR WHICH OUTPUT IS DESIRED
 COMPACT CELL-BY-CELL BUDGET FILES WILL BE WRITTEN
 AUXILIARY DATA WILL BE SAVED IN CELL-BY-CELL BUDGET FILES
 HEAD PRINT FORMAT CODE IS   0    DRAWDOWN PRINT FORMAT CODE IS   0
 HEADS WILL BE SAVED ON UNIT    3    DRAWDOWNS WILL BE SAVED ON UNIT    0

 LPF -- LAYER-PROPERTY FLOW PACKAGE, VERSION 7, 5/2/2005
         INPUT READ FROM UNIT   11
 # LPF package for  MODFLOW-2005, generated by Flopy.
 CELL-BY-CELL FLOWS WILL BE SAVED ON UNIT   40
 HEAD AT CELLS THAT CONVERT TO DRY=  -888.00    
 No named parameters

   LAYER FLAGS:
 LAYER       LAYTYP        LAYAVG         CHANI        LAYVKA        LAYWET
 ---------------------------------------------------------------------------
    1             1             0    -1.000E+00             1             0

   INTERPRETATION OF LAYER FLAGS:
                        INTERBLOCK     HORIZONTAL    DATA IN
         LAYER TYPE   TRANSMISSIVITY   ANISOTROPY   ARRAY VKA   WETTABILITY
 LAYER      (LAYTYP)      (LAYAVG)       (CHANI)      (LAYVKA)      (LAYWET)
 ---------------------------------------------------------------------------
    1   CONVERTIBLE      HARMONIC      VARIABLE    ANISOTROPY  NON-WETTABLE

 WETTING CAPABILITY IS NOT ACTIVE IN ANY LAYER



              HYD. COND. ALONG ROWS FOR LAYER   1
 READING ON UNIT   11 WITH FORMAT: (FREE)              



             HORIZ. ANI. (COL./ROW) FOR LAYER   1
 READING ON UNIT   11 WITH FORMAT: (FREE)              



            HORIZ. TO VERTICAL ANI. FOR LAYER   1
 READING ON UNIT   11 WITH FORMAT: (FREE)              

 WEL -- WELL PACKAGE, VERSION 7, 5/2/2005 INPUT READ FROM UNIT   16
 # WEL package for  MODFLOW-2005, generated by Flopy.
 No named parameters
 MAXIMUM OF     93 ACTIVE WELLS AT ONE TIME
 CELL-BY-CELL FLOWS WILL BE SAVED ON UNIT   40
 AUXILIARY WELL VARIABLE: IFACE           
 AUXILIARY WELL VARIABLE: QFACT           
 AUXILIARY WELL VARIABLE: CELLGRP         


     0 Well parameters

 RCH -- RECHARGE PACKAGE, VERSION 7, 5/2/2005 INPUT READ FROM UNIT   13
 # RCH package for  MODFLOW-2005, generated by Flopy.
 No named parameters
 OPTION 3 -- RECHARGE TO HIGHEST ACTIVE NODE IN EACH VERTICAL COLUMN
 CELL-BY-CELL FLOWS WILL BE SAVED ON UNIT   40


     0 Recharge parameters

 CHD -- TIME-VARIANT SPECIFIED-HEAD OPTION, VERSION 7, 5/2/2005
 INPUT READ FROM UNIT   14
 # CHD package for  MODFLOW-2005, generated by Flopy.
 No named parameters
 MAXIMUM OF    115 TIME-VARIANT SPECIFIED-HEAD CELLS AT ONE TIME


     0 TIME-VARIANT SPECIFIED-HEAD PARAMETERS

 PCG -- CONJUGATE-GRADIENT SOLUTION PACKAGE, VERSION 7, 5/2/2005
 # PCG package for  MODFLOW-2005, generated by Flopy.
 MAXIMUM OF     25 CALLS OF SOLUTION ROUTINE
 MAXIMUM OF     50 INTERNAL ITERATIONS PER CALL TO SOLUTION ROUTINE
 MATRIX PRECONDITIONING TYPE :    1



                                    SOLUTION BY THE CONJUGATE-GRADIENT METHOD
                                   -------------------------------------------
                    MAXIMUM NUMBER OF CALLS TO PCG ROUTINE =       25
                        MAXIMUM ITERATIONS PER CALL TO PCG =       50
                               MATRIX PRECONDITIONING TYPE =        1
        RELAXATION FACTOR (ONLY USED WITH PRECOND. TYPE 1) =    0.10000E+01
 PARAMETER OF POLYNOMIAL PRECOND. = 2 (2) OR IS CALCULATED :        0
                         HEAD CHANGE CRITERION FOR CLOSURE =    0.10000E-01
                     RESIDUAL CHANGE CRITERION FOR CLOSURE =    0.10000E-01
            PCG HEAD AND RESIDUAL CHANGE PRINTOUT INTERVAL =      999
     PRINTING FROM SOLVER IS LIMITED(1) OR SUPPRESSED (>1) =        2
                            STEADY-STATE DAMPING PARAMETER =    0.10000E+01
                               TRANSIENT DAMPING PARAMETER =    0.10000E+01
1
                            STRESS PERIOD NO.    1, LENGTH =   1.000000    
                            -----------------------------------------------

                              NUMBER OF TIME STEPS =     1

                               MULTIPLIER FOR DELT =     1.000

                            INITIAL TIME STEP SIZE =   1.000000    

 WELL NO.  LAYER   ROW   COL   STRESS RATE         IFACE           QFACT           CELLGRP         
 --------------------------------------------------------------------------------------------------
      1      1    163    193     -0.1110E-01       0.000           1.000           1.000    
      2      1    151    190     -0.9700E-02       0.000           1.000           2.000    
      3      1    148    199     -0.9700E-02       0.000           1.000           3.000    
      4      1    138    199     -0.8300E-02       0.000           1.000           4.000    
      5      1    159    192     -0.4200E-02       0.000           1.000           5.000    
      6      1    156    196     -0.1400E-02       0.000           1.000           6.000    
      7      1    152    197     -0.1110E-01       0.000           1.000           7.000    
      8      1    144    197     -0.1250E-01       0.000           1.000           8.000    
      9      1    131    199     -0.4200E-02       0.000           1.000           9.000    
     10      1    123    202     -0.8300E-02       0.000           1.000           10.00    
     11      1    116    204     -0.1400E-02       0.000           1.000           11.00    
     12      1    108    206     -0.9700E-02       0.000           1.000           12.00    
     13      1    100    208     -0.1250E-01       0.000           1.000           13.00    
     14      1     92    210     -0.8300E-02       0.000           1.000           14.00    
     15      1     84    210     -0.1250E-01       0.000           1.000           15.00    
     16      1     77    211     -0.8300E-02       0.000           1.000           16.00    
     17      1     72    212     -0.9700E-02       0.000           1.000           17.00    
     18      1     67    213     -0.6900E-02       0.000           1.000           18.00    
     19      1     63    208     -0.1530E-01       0.000           1.000           19.00    
     20      1     59    214     -0.4200E-02       0.000           1.000           20.00    
     21      1     52    213     -0.1530E-01       0.000           1.000           21.00    
     22      1     44    213     -0.6900E-02       0.000           1.000           22.00    
     23      1    124    196     -0.5600E-02       0.000           1.000           23.00    
     24      1    112    203     -0.4200E-02       0.000           1.000           24.00    
     25      1     97    204     -0.6900E-02       0.000           1.000           25.00    
     26      1    170    197     -0.9700E-02       0.000           1.000           26.00    
     27      1    176    196     -0.1530E-01       0.000           1.000           27.00    
     28      1    143    201     -0.4200E-02       0.000           1.000           28.00    
     29      1    135    201     -0.4200E-02       0.000           1.000           29.00    
     30      1    127    201     -0.4200E-02       0.000           1.000           30.00    
     31      1    105    207     -0.1670E-01       0.000           1.000           31.00    
     32      1     94    208     -0.1530E-01       0.000           1.000           32.00    
     33      1     88    208     -0.5600E-02       0.000           1.000           33.00    
     34      1     81    213     -0.6900E-02       0.000           1.000           34.00    
     35      1     68    208     -0.1810E-01       0.000           1.000           35.00    
     36      1     61    216     -0.2780E-01       0.000           1.000           36.00    
     37      1     55    210     -0.1250E-01       0.000           1.000           37.00    
     38      1     47    216     -0.9700E-02       0.000           1.000           38.00    
     39      1     39    213     -0.2800E-02       0.000           1.000           39.00    
     40      1     38    218     -0.1670E-01       0.000           1.000           40.00    
     41      1     80    208     -0.2800E-02       0.000           1.000           41.00    
     42      1    118    201     -0.5600E-02       0.000           1.000           42.00    
     43      1    134    197     -0.4200E-02       0.000           1.000           43.00    
     44      1    158    200     -0.6900E-02       0.000           1.000           44.00    
     45      1    165    198     -0.9700E-02       0.000           1.000           45.00    
     46      1    169    194     -0.2800E-02       0.000           1.000           46.00    
     47      1    181    197     -0.6900E-02       0.000           1.000           47.00    
     48      1    174    193     -0.1400E-02       0.000           1.000           48.00    
     49      1     65    217     -0.8300E-02       0.000           1.000           49.00    
     50      1     61    211     -0.1400E-02       0.000           1.000           50.00    
     51      1     56    215     -0.4200E-02       0.000           1.000           51.00    
     52      1     39    216     -0.8300E-02       0.000           1.000           52.00    
     53      1     32    218     -0.2360E-01       0.000           1.000           53.00    
     54      1     73    208     -0.8300E-02       0.000           1.000           54.00    
     55      1     76    213     -0.1400E-02       0.000           1.000           55.00    
     56      1     83    206     -0.1810E-01       0.000           1.000           56.00    
     57      1     88    211     -0.4200E-02       0.000           1.000           57.00    
     58      1     48    212     -0.1400E-02       0.000           1.000           58.00    
     59      1    103    205     -0.2780E-01       0.000           1.000           59.00    
     60      1     91    205     -0.8300E-02       0.000           1.000           60.00    
     61      1    106    202     -0.1530E-01       0.000           1.000           61.00    
     62      1    114    206     -0.1400E-02       0.000           1.000           62.00    
     63      1    116    198     -0.8300E-02       0.000           1.000           63.00    
     64      1    127    198     -0.8300E-02       0.000           1.000           64.00    
     65      1    131    203     -0.4200E-02       0.000           1.000           65.00    
     66      1    138    195     -0.1400E-02       0.000           1.000           66.00    
     67      1    152    200     -0.1390E-01       0.000           1.000           67.00    
     68      1    145    193     -0.8300E-02       0.000           1.000           68.00    
     69      1    130    195     -0.2220E-01       0.000           1.000           69.00    
     70      1    162    197     -0.8300E-02       0.000           1.000           70.00    
     71      1    166    190     -0.4200E-02       0.000           1.000           71.00    
     72      1     86    204     -0.2360E-01       0.000           1.000           72.00    
     73      1    173    198     -0.1400E-02       0.000           1.000           73.00    
     74      1    170    190     -0.8300E-02       0.000           1.000           74.00    
     75      1    180    193     -0.8300E-02       0.000           1.000           75.00    
     76      1    149    194     -0.2080E-01       0.000           1.000           76.00    
     77      1     35    218     -0.1400E-02       0.000           1.000           77.00    
     78      1     34    215     -0.1400E-02       0.000           1.000           78.00    
     79      1     43    215     -0.1530E-01       0.000           1.000           79.00    
     80      1     52    217     -0.8300E-02       0.000           1.000           80.00    
     81      1     59    217     -0.1530E-01       0.000           1.000           81.00    
     82      1     57    211     -0.4200E-02       0.000           1.000           82.00    
     83      1     63    213     -0.1530E-01       0.000           1.000           83.00    
     84      1     42    211     -0.8300E-02       0.000           1.000           84.00    
     85      1     35    214     -0.5600E-02       0.000           1.000           85.00    
     86      1     51    211     -0.1530E-01       0.000           1.000           86.00    
     87      1     46    209     -0.5600E-02       0.000           1.000           87.00    
     88      1     65    211     -0.4200E-02       0.000           1.000           88.00    
     89      1     54    213     -0.5600E-02       0.000           1.000           89.00    
     90      1     53    208     -0.8300E-02       0.000           1.000           90.00    
     91      1     69    216     -0.5600E-02       0.000           1.000           91.00    
     92      1     77    208     -0.2500E-01       0.000           1.000           92.00    
     93      1     78    205     -0.4200E-02       0.000           1.000           93.00    

     93 WELLS



                           RECHARGE
 READING ON UNIT   13 WITH FORMAT: (FREE)              

 CHD NO.   LAYER   ROW   COL    START HEAD        END HEAD         
 ------------------------------------------------------------------
      1      1      8    222       0.000           0.000    
      2      1      9    222       0.000           0.000    
      3      1     10    222       0.000           0.000    
      4      1     11    222       0.000           0.000    
      5      1     12    222       0.000           0.000    
      6      1     15    221       0.000           0.000    
      7      1     16    221       0.000           0.000    
      8      1     17    221       0.000           0.000    
      9      1     18    221       0.000           0.000    
     10      1     19    221       0.000           0.000    
     11      1     24    220       0.000           0.000    
     12      1     25    220       0.000           0.000    
     13      1     26    220       0.000           0.000    
     14      1     27    220       0.000           0.000    
     15      1     28    220       0.000           0.000    
     16      1     29    220       0.000           0.000    
     17      1     37    219       0.000           0.000    
     18      1     38    219       0.000           0.000    
     19      1     39    219       0.000           0.000    
     20      1     40    219       0.000           0.000    
     21      1     41    218       0.000           0.000    
     22      1     42    218       0.000           0.000    
     23      1     43    218       0.000           0.000    
     24      1     46    217       0.000           0.000    
     25      1     47    217       0.000           0.000    
     26      1     48    217       0.000           0.000    
     27      1     50    218       0.000           0.000    
     28      1     51    218       0.000           0.000    
     29      1     56    219       0.000           0.000    
     30      1     57    219       0.000           0.000    
     31      1     58    219       0.000           0.000    
     32      1     64    218       0.000           0.000    
     33      1     65    218       0.000           0.000    
     34      1     66    218       0.000           0.000    
     35      1     67    218       0.000           0.000    
     36      1     69    217       0.000           0.000    
     37      1     70    217       0.000           0.000    
     38      1     72    216       0.000           0.000    
     39      1     73    216       0.000           0.000    
     40      1     78    215       0.000           0.000    
     41      1     79    215       0.000           0.000    
     42      1     80    215       0.000           0.000    
     43      1     81    215       0.000           0.000    
     44      1     84    214       0.000           0.000    
     45      1     85    214       0.000           0.000    
     46      1     86    214       0.000           0.000    
     47      1     87    214       0.000           0.000    
     48      1     90    213       0.000           0.000    
     49      1     91    213       0.000           0.000    
     50      1     92    213       0.000           0.000    
     51      1     93    213       0.000           0.000    
     52      1     96    212       0.000           0.000    
     53      1     97    212       0.000           0.000    
     54      1     98    212       0.000           0.000    
     55      1    101    211       0.000           0.000    
     56      1    102    211       0.000           0.000    
     57      1    104    210       0.000           0.000    
     58      1    105    210       0.000           0.000    
     59      1    107    209       0.000           0.000    
     60      1    108    209       0.000           0.000    
     61      1    109    209       0.000           0.000    
     62      1    111    208       0.000           0.000    
     63      1    112    208       0.000           0.000    
     64      1    113    208       0.000           0.000    
     65      1    115    207       0.000           0.000    
     66      1    116    207       0.000           0.000    
     67      1    117    207       0.000           0.000    
     68      1    120    206       0.000           0.000    
     69      1    122    205       0.000           0.000    
     70      1    123    205       0.000           0.000    
     71      1    124    205       0.000           0.000    
     72      1    131    204       0.000           0.000    
     73      1    132    204       0.000           0.000    
     74      1    133    204       0.000           0.000    
     75      1    134    204       0.000           0.000    
     76      1    135    204       0.000           0.000    
     77      1    136    204       0.000           0.000    
     78      1    137    204       0.000           0.000    
     79      1    141    203       0.000           0.000    
     80      1    142    203       0.000           0.000    
     81      1    143    203       0.000           0.000    
     82      1    148    202       0.000           0.000    
     83      1    149    202       0.000           0.000    
     84      1    150    202       0.000           0.000    
     85      1    151    202       0.000           0.000    
     86      1    152    202       0.000           0.000    
     87      1    153    202       0.000           0.000    
     88      1    164    201       0.000           0.000    
     89      1    165    201       0.000           0.000    
     90      1    166    201       0.000           0.000    
     91      1    167    201       0.000           0.000    
     92      1    168    201       0.000           0.000    
     93      1    169    201       0.000           0.000    
     94      1    173    200       0.000           0.000    
     95      1    174    200       0.000           0.000    
     96      1    175    200       0.000           0.000    
     97      1    179    199       0.000           0.000    
     98      1    180    199       0.000           0.000    
     99      1    181    199       0.000           0.000    
    100      1    182    199       0.000           0.000    
    101      1    189    198       0.000           0.000    
    102      1    190    198       0.000           0.000    
    103      1    191    198       0.000           0.000    
    104      1    192    198       0.000           0.000    
    105      1    193    198       0.000           0.000    
    106      1    194    198       0.000           0.000    
    107      1    198    197       0.000           0.000    
    108      1    199    197       0.000           0.000    
    109      1    200    197       0.000           0.000    
    110      1    203    197       0.000           0.000    
    111      1    204    197       0.000           0.000    
    112      1    205    197       0.000           0.000    
    113      1    206    197       0.000           0.000    
    114      1    207    197       0.000           0.000    
    115      1    208    197       0.000           0.000    


    115 TIME-VARIANT SPECIFIED-HEAD CELLS

 SOLVING FOR HEAD 

 CELL CONVERSIONS FOR ITER.=  2  LAYER=  1  STEP=  1  PERIOD=   1   (ROW,COL)
    DRY(186,168)   DRY(187,168)   DRY(188,168)   DRY(194,170)   DRY(195,170)   
    DRY(196,170)   DRY(197,171)   DRY(198,172)   DRY(202,176)   

 OUTPUT CONTROL FOR STRESS PERIOD    1   TIME STEP    1
    PRINT BUDGET
    SAVE HEAD FOR ALL LAYERS
    SAVE BUDGET
 UBDSV2 SAVING "   CONSTANT HEAD" ON UNIT  40 AT TIME STEP  1, STRESS PERIOD   1
 UBDSV1 SAVING "FLOW RIGHT FACE " ON UNIT  40 AT TIME STEP  1, STRESS PERIOD   1
 UBDSV1 SAVING "FLOW FRONT FACE " ON UNIT  40 AT TIME STEP  1, STRESS PERIOD   1
 UBDSV4 SAVING "           WELLS" ON UNIT  40 AT TIME STEP  1, STRESS PERIOD   1
 UBDSV3 SAVING "        RECHARGE" ON UNIT  40 AT TIME STEP  1, STRESS PERIOD   1

 HEAD WILL BE SAVED ON UNIT    3 AT END OF TIME STEP    1, STRESS PERIOD    1
1
  VOLUMETRIC BUDGET FOR ENTIRE MODEL AT END OF TIME STEP    1, STRESS PERIOD   1
  ------------------------------------------------------------------------------

     CUMULATIVE VOLUMES      L**3       RATES FOR THIS TIME STEP      L**3/T
     ------------------                 ------------------------

           IN:                                      IN:
           ---                                      ---
             STORAGE =           0.0000               STORAGE =           0.0000
       CONSTANT HEAD =           0.4442         CONSTANT HEAD =           0.4442
               WELLS =           0.0000                 WELLS =           0.0000
            RECHARGE =           0.4100              RECHARGE =           0.4100

            TOTAL IN =           0.8542              TOTAL IN =           0.8542

          OUT:                                     OUT:
          ----                                     ----
             STORAGE =           0.0000               STORAGE =           0.0000
       CONSTANT HEAD =       1.3444E-02         CONSTANT HEAD =       1.3444E-02
               WELLS =           0.8406                 WELLS =           0.8406
            RECHARGE =           0.0000              RECHARGE =           0.0000

           TOTAL OUT =           0.8540             TOTAL OUT =           0.8540

            IN - OUT =       2.0051E-04              IN - OUT =       2.0051E-04

 PERCENT DISCREPANCY =           0.02     PERCENT DISCREPANCY =           0.02






         TIME SUMMARY AT END OF TIME STEP    1 IN STRESS PERIOD    1
                    SECONDS     MINUTES      HOURS       DAYS        YEARS
                    -----------------------------------------------------------
   TIME STEP LENGTH  1.0000     1.66667E-02 2.77778E-04 1.15741E-05 3.16881E-08
 STRESS PERIOD TIME  1.0000     1.66667E-02 2.77778E-04 1.15741E-05 3.16881E-08
         TOTAL TIME  1.0000     1.66667E-02 2.77778E-04 1.15741E-05 3.16881E-08
1

 Run end date and time (yyyy/mm/dd hh:mm:ss): 2020/04/30 15:45:14
 Elapsed run time:  0.249 Seconds

